---------- Begin Simulation Statistics ----------
final_tick                                   35263000                       # Number of ticks from beginning of simulation (restored from checkpoints and never reset)
host_inst_rate                                 155920                       # Simulator instruction rate (inst/s)
host_mem_usage                                 664340                       # Number of bytes of host memory used
host_op_rate                                   179364                       # Simulator op (including micro ops) rate (op/s)
host_seconds                                     0.07                       # Real time elapsed on the host
host_tick_rate                              518380044                       # Simulator tick rate (ticks/s)
sim_freq                                 1000000000000                       # Frequency of simulated ticks
sim_insts                                       10572                       # Number of instructions simulated
sim_ops                                         12190                       # Number of ops (including micro ops) simulated
sim_seconds                                  0.000035                       # Number of seconds simulated
sim_ticks                                    35263000                       # Number of ticks simulated
system.cpu.committedInsts                       10572                       # Number of instructions committed
system.cpu.committedOps                         12190                       # Number of ops (including micro ops) committed
system.cpu.cpi                               6.671018                       # CPI: cycles per instruction
system.cpu.discardedOps                          2019                       # Number of ops (including micro ops) which were discarded before commit
system.cpu.idleCycles                           50318                       # Total number of cycles that the object has spent stopped
system.cpu.ipc                               0.149902                       # IPC: instructions per cycle
system.cpu.numCycles                            70526                       # number of cpu cycles simulated
system.cpu.numFetchSuspends                         0                       # Number of times Execute suspended instruction fetching
system.cpu.numWorkItemsCompleted                    0                       # number of work items this cpu completed
system.cpu.numWorkItemsStarted                      0                       # number of work items this cpu started
system.cpu.op_class_0::No_OpClass                   0      0.00%      0.00% # Class of committed instruction
system.cpu.op_class_0::IntAlu                    8391     68.84%     68.84% # Class of committed instruction
system.cpu.op_class_0::IntMult                     62      0.51%     69.34% # Class of committed instruction
system.cpu.op_class_0::IntDiv                       0      0.00%     69.34% # Class of committed instruction
system.cpu.op_class_0::FloatAdd                     0      0.00%     69.34% # Class of committed instruction
system.cpu.op_class_0::FloatCmp                     0      0.00%     69.34% # Class of committed instruction
system.cpu.op_class_0::FloatCvt                     0      0.00%     69.34% # Class of committed instruction
system.cpu.op_class_0::FloatMult                    0      0.00%     69.34% # Class of committed instruction
system.cpu.op_class_0::FloatMultAcc                 0      0.00%     69.34% # Class of committed instruction
system.cpu.op_class_0::FloatDiv                     0      0.00%     69.34% # Class of committed instruction
system.cpu.op_class_0::FloatMisc                    0      0.00%     69.34% # Class of committed instruction
system.cpu.op_class_0::FloatSqrt                    0      0.00%     69.34% # Class of committed instruction
system.cpu.op_class_0::SimdAdd                      0      0.00%     69.34% # Class of committed instruction
system.cpu.op_class_0::SimdAddAcc                   0      0.00%     69.34% # Class of committed instruction
system.cpu.op_class_0::SimdAlu                      0      0.00%     69.34% # Class of committed instruction
system.cpu.op_class_0::SimdCmp                      0      0.00%     69.34% # Class of committed instruction
system.cpu.op_class_0::SimdCvt                      0      0.00%     69.34% # Class of committed instruction
system.cpu.op_class_0::SimdMisc                     0      0.00%     69.34% # Class of committed instruction
system.cpu.op_class_0::SimdMult                     0      0.00%     69.34% # Class of committed instruction
system.cpu.op_class_0::SimdMultAcc                  0      0.00%     69.34% # Class of committed instruction
system.cpu.op_class_0::SimdShift                    0      0.00%     69.34% # Class of committed instruction
system.cpu.op_class_0::SimdShiftAcc                 0      0.00%     69.34% # Class of committed instruction
system.cpu.op_class_0::SimdDiv                      0      0.00%     69.34% # Class of committed instruction
system.cpu.op_class_0::SimdSqrt                     0      0.00%     69.34% # Class of committed instruction
system.cpu.op_class_0::SimdFloatAdd                 0      0.00%     69.34% # Class of committed instruction
system.cpu.op_class_0::SimdFloatAlu                 0      0.00%     69.34% # Class of committed instruction
system.cpu.op_class_0::SimdFloatCmp                 0      0.00%     69.34% # Class of committed instruction
system.cpu.op_class_0::SimdFloatCvt                 0      0.00%     69.34% # Class of committed instruction
system.cpu.op_class_0::SimdFloatDiv                 0      0.00%     69.34% # Class of committed instruction
system.cpu.op_class_0::SimdFloatMisc               21      0.17%     69.52% # Class of committed instruction
system.cpu.op_class_0::SimdFloatMult                0      0.00%     69.52% # Class of committed instruction
system.cpu.op_class_0::SimdFloatMultAcc             0      0.00%     69.52% # Class of committed instruction
system.cpu.op_class_0::SimdFloatSqrt                0      0.00%     69.52% # Class of committed instruction
system.cpu.op_class_0::SimdReduceAdd                0      0.00%     69.52% # Class of committed instruction
system.cpu.op_class_0::SimdReduceAlu                0      0.00%     69.52% # Class of committed instruction
system.cpu.op_class_0::SimdReduceCmp                0      0.00%     69.52% # Class of committed instruction
system.cpu.op_class_0::SimdFloatReduceAdd            0      0.00%     69.52% # Class of committed instruction
system.cpu.op_class_0::SimdFloatReduceCmp            0      0.00%     69.52% # Class of committed instruction
system.cpu.op_class_0::SimdAes                      0      0.00%     69.52% # Class of committed instruction
system.cpu.op_class_0::SimdAesMix                   0      0.00%     69.52% # Class of committed instruction
system.cpu.op_class_0::SimdSha1Hash                 0      0.00%     69.52% # Class of committed instruction
system.cpu.op_class_0::SimdSha1Hash2                0      0.00%     69.52% # Class of committed instruction
system.cpu.op_class_0::SimdSha256Hash               0      0.00%     69.52% # Class of committed instruction
system.cpu.op_class_0::SimdSha256Hash2              0      0.00%     69.52% # Class of committed instruction
system.cpu.op_class_0::SimdShaSigma2                0      0.00%     69.52% # Class of committed instruction
system.cpu.op_class_0::SimdShaSigma3                0      0.00%     69.52% # Class of committed instruction
system.cpu.op_class_0::SimdPredAlu                  0      0.00%     69.52% # Class of committed instruction
system.cpu.op_class_0::MemRead                   1774     14.55%     84.07% # Class of committed instruction
system.cpu.op_class_0::MemWrite                  1942     15.93%    100.00% # Class of committed instruction
system.cpu.op_class_0::FloatMemRead                 0      0.00%    100.00% # Class of committed instruction
system.cpu.op_class_0::FloatMemWrite                0      0.00%    100.00% # Class of committed instruction
system.cpu.op_class_0::IprAccess                    0      0.00%    100.00% # Class of committed instruction
system.cpu.op_class_0::InstPrefetch                 0      0.00%    100.00% # Class of committed instruction
system.cpu.op_class_0::total                    12190                       # Class of committed instruction
system.cpu.tickCycles                           20208                       # Number of cycles that the object actually ticked
system.cpu.workload.numSyscalls                    11                       # Number of system calls
system.membus.snoop_filter.hit_multi_requests            6                       # Number of requests hitting in the snoop filter with multiple (>1) holders of the requested data.
system.membus.snoop_filter.hit_multi_snoops            0                       # Number of snoops hitting in the snoop filter with multiple (>1) holders of the requested data.
system.membus.snoop_filter.hit_single_requests          140                       # Number of requests hitting in the snoop filter with a single holder of the requested data.
system.membus.snoop_filter.hit_single_snoops            0                       # Number of snoops hitting in the snoop filter with a single holder of the requested data.
system.membus.snoop_filter.tot_requests           744                       # Total number of requests made to the snoop filter.
system.membus.snoop_filter.tot_snoops               0                       # Total number of snoops made to the snoop filter.
system.clk_domain.clock                          1000                       # Clock period in ticks
system.cpu.branchPred.lookups                    3570                       # Number of BP lookups
system.cpu.branchPred.condPredicted              2328                       # Number of conditional branches predicted
system.cpu.branchPred.condIncorrect               617                       # Number of conditional branches incorrect
system.cpu.branchPred.BTBLookups                 1648                       # Number of BTB lookups
system.cpu.branchPred.BTBHits                     737                       # Number of BTB hits
system.cpu.branchPred.BTBHitPct             44.720874                       # BTB Hit Percentage
system.cpu.branchPred.RASUsed                     299                       # Number of times the RAS was used to get a target.
system.cpu.branchPred.RASIncorrect                  1                       # Number of incorrect RAS predictions.
system.cpu.branchPred.indirectLookups             192                       # Number of indirect predictor lookups.
system.cpu.branchPred.indirectHits                 33                       # Number of indirect target hits.
system.cpu.branchPred.indirectMisses              159                       # Number of indirect misses.
system.cpu.branchPred.indirectMispredicted           69                       # Number of mispredicted indirect branches.
system.cpu.dcache.demand_hits::.cpu.data         3624                       # number of demand (read+write) hits
system.cpu.dcache.demand_hits::total             3624                       # number of demand (read+write) hits
system.cpu.dcache.overall_hits::.cpu.data         3642                       # number of overall hits
system.cpu.dcache.overall_hits::total            3642                       # number of overall hits
system.cpu.dcache.demand_misses::.cpu.data          221                       # number of demand (read+write) misses
system.cpu.dcache.demand_misses::total            221                       # number of demand (read+write) misses
system.cpu.dcache.overall_misses::.cpu.data          231                       # number of overall misses
system.cpu.dcache.overall_misses::total           231                       # number of overall misses
system.cpu.dcache.demand_miss_latency::.cpu.data     12515000                       # number of demand (read+write) miss cycles
system.cpu.dcache.demand_miss_latency::total     12515000                       # number of demand (read+write) miss cycles
system.cpu.dcache.overall_miss_latency::.cpu.data     12515000                       # number of overall miss cycles
system.cpu.dcache.overall_miss_latency::total     12515000                       # number of overall miss cycles
system.cpu.dcache.demand_accesses::.cpu.data         3845                       # number of demand (read+write) accesses
system.cpu.dcache.demand_accesses::total         3845                       # number of demand (read+write) accesses
system.cpu.dcache.overall_accesses::.cpu.data         3873                       # number of overall (read+write) accesses
system.cpu.dcache.overall_accesses::total         3873                       # number of overall (read+write) accesses
system.cpu.dcache.demand_miss_rate::.cpu.data     0.057477                       # miss rate for demand accesses
system.cpu.dcache.demand_miss_rate::total     0.057477                       # miss rate for demand accesses
system.cpu.dcache.overall_miss_rate::.cpu.data     0.059644                       # miss rate for overall accesses
system.cpu.dcache.overall_miss_rate::total     0.059644                       # miss rate for overall accesses
system.cpu.dcache.demand_avg_miss_latency::.cpu.data 56628.959276                       # average overall miss latency
system.cpu.dcache.demand_avg_miss_latency::total 56628.959276                       # average overall miss latency
system.cpu.dcache.overall_avg_miss_latency::.cpu.data 54177.489177                       # average overall miss latency
system.cpu.dcache.overall_avg_miss_latency::total 54177.489177                       # average overall miss latency
system.cpu.dcache.blocked_cycles::no_mshrs            0                       # number of cycles access was blocked
system.cpu.dcache.blocked_cycles::no_targets            0                       # number of cycles access was blocked
system.cpu.dcache.blocked::no_mshrs                 0                       # number of cycles access was blocked
system.cpu.dcache.blocked::no_targets               0                       # number of cycles access was blocked
system.cpu.dcache.avg_blocked_cycles::no_mshrs          nan                       # average number of cycles each access was blocked
system.cpu.dcache.avg_blocked_cycles::no_targets          nan                       # average number of cycles each access was blocked
system.cpu.dcache.demand_mshr_hits::.cpu.data           50                       # number of demand (read+write) MSHR hits
system.cpu.dcache.demand_mshr_hits::total           50                       # number of demand (read+write) MSHR hits
system.cpu.dcache.overall_mshr_hits::.cpu.data           50                       # number of overall MSHR hits
system.cpu.dcache.overall_mshr_hits::total           50                       # number of overall MSHR hits
system.cpu.dcache.demand_mshr_misses::.cpu.data          171                       # number of demand (read+write) MSHR misses
system.cpu.dcache.demand_mshr_misses::total          171                       # number of demand (read+write) MSHR misses
system.cpu.dcache.overall_mshr_misses::.cpu.data          178                       # number of overall MSHR misses
system.cpu.dcache.overall_mshr_misses::total          178                       # number of overall MSHR misses
system.cpu.dcache.demand_mshr_miss_latency::.cpu.data      9587500                       # number of demand (read+write) MSHR miss cycles
system.cpu.dcache.demand_mshr_miss_latency::total      9587500                       # number of demand (read+write) MSHR miss cycles
system.cpu.dcache.overall_mshr_miss_latency::.cpu.data      9972000                       # number of overall MSHR miss cycles
system.cpu.dcache.overall_mshr_miss_latency::total      9972000                       # number of overall MSHR miss cycles
system.cpu.dcache.demand_mshr_miss_rate::.cpu.data     0.044473                       # mshr miss rate for demand accesses
system.cpu.dcache.demand_mshr_miss_rate::total     0.044473                       # mshr miss rate for demand accesses
system.cpu.dcache.overall_mshr_miss_rate::.cpu.data     0.045959                       # mshr miss rate for overall accesses
system.cpu.dcache.overall_mshr_miss_rate::total     0.045959                       # mshr miss rate for overall accesses
system.cpu.dcache.demand_avg_mshr_miss_latency::.cpu.data 56067.251462                       # average overall mshr miss latency
system.cpu.dcache.demand_avg_mshr_miss_latency::total 56067.251462                       # average overall mshr miss latency
system.cpu.dcache.overall_avg_mshr_miss_latency::.cpu.data 56022.471910                       # average overall mshr miss latency
system.cpu.dcache.overall_avg_mshr_miss_latency::total 56022.471910                       # average overall mshr miss latency
system.cpu.dcache.replacements                      0                       # number of replacements
system.cpu.dcache.ReadReq_hits::.cpu.data         1877                       # number of ReadReq hits
system.cpu.dcache.ReadReq_hits::total            1877                       # number of ReadReq hits
system.cpu.dcache.ReadReq_misses::.cpu.data          106                       # number of ReadReq misses
system.cpu.dcache.ReadReq_misses::total           106                       # number of ReadReq misses
system.cpu.dcache.ReadReq_miss_latency::.cpu.data      6146500                       # number of ReadReq miss cycles
system.cpu.dcache.ReadReq_miss_latency::total      6146500                       # number of ReadReq miss cycles
system.cpu.dcache.ReadReq_accesses::.cpu.data         1983                       # number of ReadReq accesses(hits+misses)
system.cpu.dcache.ReadReq_accesses::total         1983                       # number of ReadReq accesses(hits+misses)
system.cpu.dcache.ReadReq_miss_rate::.cpu.data     0.053454                       # miss rate for ReadReq accesses
system.cpu.dcache.ReadReq_miss_rate::total     0.053454                       # miss rate for ReadReq accesses
system.cpu.dcache.ReadReq_avg_miss_latency::.cpu.data 57985.849057                       # average ReadReq miss latency
system.cpu.dcache.ReadReq_avg_miss_latency::total 57985.849057                       # average ReadReq miss latency
system.cpu.dcache.ReadReq_mshr_hits::.cpu.data            5                       # number of ReadReq MSHR hits
system.cpu.dcache.ReadReq_mshr_hits::total            5                       # number of ReadReq MSHR hits
system.cpu.dcache.ReadReq_mshr_misses::.cpu.data          101                       # number of ReadReq MSHR misses
system.cpu.dcache.ReadReq_mshr_misses::total          101                       # number of ReadReq MSHR misses
system.cpu.dcache.ReadReq_mshr_miss_latency::.cpu.data      5777000                       # number of ReadReq MSHR miss cycles
system.cpu.dcache.ReadReq_mshr_miss_latency::total      5777000                       # number of ReadReq MSHR miss cycles
system.cpu.dcache.ReadReq_mshr_miss_rate::.cpu.data     0.050933                       # mshr miss rate for ReadReq accesses
system.cpu.dcache.ReadReq_mshr_miss_rate::total     0.050933                       # mshr miss rate for ReadReq accesses
system.cpu.dcache.ReadReq_avg_mshr_miss_latency::.cpu.data 57198.019802                       # average ReadReq mshr miss latency
system.cpu.dcache.ReadReq_avg_mshr_miss_latency::total 57198.019802                       # average ReadReq mshr miss latency
system.cpu.dcache.WriteReq_hits::.cpu.data         1747                       # number of WriteReq hits
system.cpu.dcache.WriteReq_hits::total           1747                       # number of WriteReq hits
system.cpu.dcache.WriteReq_misses::.cpu.data          115                       # number of WriteReq misses
system.cpu.dcache.WriteReq_misses::total          115                       # number of WriteReq misses
system.cpu.dcache.WriteReq_miss_latency::.cpu.data      6368500                       # number of WriteReq miss cycles
system.cpu.dcache.WriteReq_miss_latency::total      6368500                       # number of WriteReq miss cycles
system.cpu.dcache.WriteReq_accesses::.cpu.data         1862                       # number of WriteReq accesses(hits+misses)
system.cpu.dcache.WriteReq_accesses::total         1862                       # number of WriteReq accesses(hits+misses)
system.cpu.dcache.WriteReq_miss_rate::.cpu.data     0.061762                       # miss rate for WriteReq accesses
system.cpu.dcache.WriteReq_miss_rate::total     0.061762                       # miss rate for WriteReq accesses
system.cpu.dcache.WriteReq_avg_miss_latency::.cpu.data 55378.260870                       # average WriteReq miss latency
system.cpu.dcache.WriteReq_avg_miss_latency::total 55378.260870                       # average WriteReq miss latency
system.cpu.dcache.WriteReq_mshr_hits::.cpu.data           45                       # number of WriteReq MSHR hits
system.cpu.dcache.WriteReq_mshr_hits::total           45                       # number of WriteReq MSHR hits
system.cpu.dcache.WriteReq_mshr_misses::.cpu.data           70                       # number of WriteReq MSHR misses
system.cpu.dcache.WriteReq_mshr_misses::total           70                       # number of WriteReq MSHR misses
system.cpu.dcache.WriteReq_mshr_miss_latency::.cpu.data      3810500                       # number of WriteReq MSHR miss cycles
system.cpu.dcache.WriteReq_mshr_miss_latency::total      3810500                       # number of WriteReq MSHR miss cycles
system.cpu.dcache.WriteReq_mshr_miss_rate::.cpu.data     0.037594                       # mshr miss rate for WriteReq accesses
system.cpu.dcache.WriteReq_mshr_miss_rate::total     0.037594                       # mshr miss rate for WriteReq accesses
system.cpu.dcache.WriteReq_avg_mshr_miss_latency::.cpu.data 54435.714286                       # average WriteReq mshr miss latency
system.cpu.dcache.WriteReq_avg_mshr_miss_latency::total 54435.714286                       # average WriteReq mshr miss latency
system.cpu.dcache.SoftPFReq_hits::.cpu.data           18                       # number of SoftPFReq hits
system.cpu.dcache.SoftPFReq_hits::total            18                       # number of SoftPFReq hits
system.cpu.dcache.SoftPFReq_misses::.cpu.data           10                       # number of SoftPFReq misses
system.cpu.dcache.SoftPFReq_misses::total           10                       # number of SoftPFReq misses
system.cpu.dcache.SoftPFReq_accesses::.cpu.data           28                       # number of SoftPFReq accesses(hits+misses)
system.cpu.dcache.SoftPFReq_accesses::total           28                       # number of SoftPFReq accesses(hits+misses)
system.cpu.dcache.SoftPFReq_miss_rate::.cpu.data     0.357143                       # miss rate for SoftPFReq accesses
system.cpu.dcache.SoftPFReq_miss_rate::total     0.357143                       # miss rate for SoftPFReq accesses
system.cpu.dcache.SoftPFReq_mshr_misses::.cpu.data            7                       # number of SoftPFReq MSHR misses
system.cpu.dcache.SoftPFReq_mshr_misses::total            7                       # number of SoftPFReq MSHR misses
system.cpu.dcache.SoftPFReq_mshr_miss_latency::.cpu.data       384500                       # number of SoftPFReq MSHR miss cycles
system.cpu.dcache.SoftPFReq_mshr_miss_latency::total       384500                       # number of SoftPFReq MSHR miss cycles
system.cpu.dcache.SoftPFReq_mshr_miss_rate::.cpu.data     0.250000                       # mshr miss rate for SoftPFReq accesses
system.cpu.dcache.SoftPFReq_mshr_miss_rate::total     0.250000                       # mshr miss rate for SoftPFReq accesses
system.cpu.dcache.SoftPFReq_avg_mshr_miss_latency::.cpu.data 54928.571429                       # average SoftPFReq mshr miss latency
system.cpu.dcache.SoftPFReq_avg_mshr_miss_latency::total 54928.571429                       # average SoftPFReq mshr miss latency
system.cpu.dcache.LoadLockedReq_hits::.cpu.data           26                       # number of LoadLockedReq hits
system.cpu.dcache.LoadLockedReq_hits::total           26                       # number of LoadLockedReq hits
system.cpu.dcache.LoadLockedReq_accesses::.cpu.data           26                       # number of LoadLockedReq accesses(hits+misses)
system.cpu.dcache.LoadLockedReq_accesses::total           26                       # number of LoadLockedReq accesses(hits+misses)
system.cpu.dcache.StoreCondReq_hits::.cpu.data           26                       # number of StoreCondReq hits
system.cpu.dcache.StoreCondReq_hits::total           26                       # number of StoreCondReq hits
system.cpu.dcache.StoreCondReq_accesses::.cpu.data           26                       # number of StoreCondReq accesses(hits+misses)
system.cpu.dcache.StoreCondReq_accesses::total           26                       # number of StoreCondReq accesses(hits+misses)
system.cpu.dcache.power_state.pwrStateResidencyTicks::UNDEFINED     35263000                       # Cumulative time (in ticks) in various power states
system.cpu.dcache.tags.tagsinuse           107.095173                       # Cycle average of tags in use
system.cpu.dcache.tags.total_refs                3872                       # Total number of references to valid blocks.
system.cpu.dcache.tags.sampled_refs               178                       # Sample count of references to valid blocks.
system.cpu.dcache.tags.avg_refs             21.752809                       # Average number of references to valid blocks.
system.cpu.dcache.tags.warmup_cycle            139000                       # Cycle when the warmup percentage was hit.
system.cpu.dcache.tags.occ_blocks::.cpu.data   107.095173                       # Average occupied blocks per requestor
system.cpu.dcache.tags.occ_percent::.cpu.data     0.104585                       # Average percentage of cache occupancy
system.cpu.dcache.tags.occ_percent::total     0.104585                       # Average percentage of cache occupancy
system.cpu.dcache.tags.occ_task_id_blocks::1024          178                       # Occupied blocks per task id
system.cpu.dcache.tags.age_task_id_blocks_1024::0           25                       # Occupied blocks per task id
system.cpu.dcache.tags.age_task_id_blocks_1024::1          153                       # Occupied blocks per task id
system.cpu.dcache.tags.occ_task_id_percent::1024     0.173828                       # Percentage of cache occupancy per task id
system.cpu.dcache.tags.tag_accesses              8028                       # Number of tag accesses
system.cpu.dcache.tags.data_accesses             8028                       # Number of data accesses
system.cpu.dcache.tags.power_state.pwrStateResidencyTicks::UNDEFINED     35263000                       # Cumulative time (in ticks) in various power states
system.cpu.dtb.instHits                             0                       # ITB inst hits
system.cpu.dtb.instMisses                           0                       # ITB inst misses
system.cpu.dtb.readHits                             0                       # DTB read hits
system.cpu.dtb.readMisses                           0                       # DTB read misses
system.cpu.dtb.writeHits                            0                       # DTB write hits
system.cpu.dtb.writeMisses                          0                       # DTB write misses
system.cpu.dtb.inserts                              0                       # Number of times an entry is inserted into the TLB
system.cpu.dtb.flushTlb                             0                       # Number of times complete TLB was flushed
system.cpu.dtb.flushTlbMva                          0                       # Number of times TLB was flushed by MVA
system.cpu.dtb.flushTlbMvaAsid                      0                       # Number of times TLB was flushed by MVA & ASID
system.cpu.dtb.flushTlbAsid                         0                       # Number of times TLB was flushed by ASID
system.cpu.dtb.flushedEntries                       0                       # Number of entries that have been flushed from TLB
system.cpu.dtb.alignFaults                          0                       # Number of TLB faults due to alignment restrictions
system.cpu.dtb.prefetchFaults                       0                       # Number of TLB faults due to prefetch
system.cpu.dtb.domainFaults                         0                       # Number of TLB faults due to domain restrictions
system.cpu.dtb.permsFaults                          0                       # Number of TLB faults due to permissions restrictions
system.cpu.dtb.readAccesses                         0                       # DTB read accesses
system.cpu.dtb.writeAccesses                        0                       # DTB write accesses
system.cpu.dtb.instAccesses                         0                       # ITB inst accesses
system.cpu.dtb.hits                                 0                       # Total TLB (inst and data) hits
system.cpu.dtb.misses                               0                       # Total TLB (inst and data) misses
system.cpu.dtb.accesses                             0                       # Total TLB (inst and data) accesses
system.cpu.dtb.stage2_mmu.stage2_tlb.instHits            0                       # ITB inst hits
system.cpu.dtb.stage2_mmu.stage2_tlb.instMisses            0                       # ITB inst misses
system.cpu.dtb.stage2_mmu.stage2_tlb.readHits            0                       # DTB read hits
system.cpu.dtb.stage2_mmu.stage2_tlb.readMisses            0                       # DTB read misses
system.cpu.dtb.stage2_mmu.stage2_tlb.writeHits            0                       # DTB write hits
system.cpu.dtb.stage2_mmu.stage2_tlb.writeMisses            0                       # DTB write misses
system.cpu.dtb.stage2_mmu.stage2_tlb.inserts            0                       # Number of times an entry is inserted into the TLB
system.cpu.dtb.stage2_mmu.stage2_tlb.flushTlb            0                       # Number of times complete TLB was flushed
system.cpu.dtb.stage2_mmu.stage2_tlb.flushTlbMva            0                       # Number of times TLB was flushed by MVA
system.cpu.dtb.stage2_mmu.stage2_tlb.flushTlbMvaAsid            0                       # Number of times TLB was flushed by MVA & ASID
system.cpu.dtb.stage2_mmu.stage2_tlb.flushTlbAsid            0                       # Number of times TLB was flushed by ASID
system.cpu.dtb.stage2_mmu.stage2_tlb.flushedEntries            0                       # Number of entries that have been flushed from TLB
system.cpu.dtb.stage2_mmu.stage2_tlb.alignFaults            0                       # Number of TLB faults due to alignment restrictions
system.cpu.dtb.stage2_mmu.stage2_tlb.prefetchFaults            0                       # Number of TLB faults due to prefetch
system.cpu.dtb.stage2_mmu.stage2_tlb.domainFaults            0                       # Number of TLB faults due to domain restrictions
system.cpu.dtb.stage2_mmu.stage2_tlb.permsFaults            0                       # Number of TLB faults due to permissions restrictions
system.cpu.dtb.stage2_mmu.stage2_tlb.readAccesses            0                       # DTB read accesses
system.cpu.dtb.stage2_mmu.stage2_tlb.writeAccesses            0                       # DTB write accesses
system.cpu.dtb.stage2_mmu.stage2_tlb.instAccesses            0                       # ITB inst accesses
system.cpu.dtb.stage2_mmu.stage2_tlb.hits            0                       # Total TLB (inst and data) hits
system.cpu.dtb.stage2_mmu.stage2_tlb.misses            0                       # Total TLB (inst and data) misses
system.cpu.dtb.stage2_mmu.stage2_tlb.accesses            0                       # Total TLB (inst and data) accesses
system.cpu.dtb.stage2_mmu.stage2_tlb.walker.walks            0                       # Table walker walks requested
system.cpu.dtb.stage2_mmu.stage2_tlb.walker.requestOrigin_Requested::Data            0                       # Table walker requests started/completed, data/inst
system.cpu.dtb.stage2_mmu.stage2_tlb.walker.requestOrigin_Requested::Inst            0                       # Table walker requests started/completed, data/inst
system.cpu.dtb.stage2_mmu.stage2_tlb.walker.requestOrigin_Requested::total            0                       # Table walker requests started/completed, data/inst
system.cpu.dtb.stage2_mmu.stage2_tlb.walker.requestOrigin_Completed::Data            0                       # Table walker requests started/completed, data/inst
system.cpu.dtb.stage2_mmu.stage2_tlb.walker.requestOrigin_Completed::Inst            0                       # Table walker requests started/completed, data/inst
system.cpu.dtb.stage2_mmu.stage2_tlb.walker.requestOrigin_Completed::total            0                       # Table walker requests started/completed, data/inst
system.cpu.dtb.stage2_mmu.stage2_tlb.walker.requestOrigin::total            0                       # Table walker requests started/completed, data/inst
system.cpu.dtb.stage2_mmu.stage2_tlb.walker.power_state.pwrStateResidencyTicks::UNDEFINED     35263000                       # Cumulative time (in ticks) in various power states
system.cpu.dtb.walker.walks                         0                       # Table walker walks requested
system.cpu.dtb.walker.requestOrigin_Requested::Data            0                       # Table walker requests started/completed, data/inst
system.cpu.dtb.walker.requestOrigin_Requested::Inst            0                       # Table walker requests started/completed, data/inst
system.cpu.dtb.walker.requestOrigin_Requested::total            0                       # Table walker requests started/completed, data/inst
system.cpu.dtb.walker.requestOrigin_Completed::Data            0                       # Table walker requests started/completed, data/inst
system.cpu.dtb.walker.requestOrigin_Completed::Inst            0                       # Table walker requests started/completed, data/inst
system.cpu.dtb.walker.requestOrigin_Completed::total            0                       # Table walker requests started/completed, data/inst
system.cpu.dtb.walker.requestOrigin::total            0                       # Table walker requests started/completed, data/inst
system.cpu.dtb.walker.power_state.pwrStateResidencyTicks::UNDEFINED     35263000                       # Cumulative time (in ticks) in various power states
system.cpu.fetch2.intInstructions               10782                       # Number of integer instructions successfully decoded
system.cpu.fetch2.fpInstructions                    0                       # Number of floating point instructions successfully decoded
system.cpu.fetch2.vecInstructions                   0                       # Number of SIMD instructions successfully decoded
system.cpu.fetch2.loadInstructions               2436                       # Number of memory load instructions successfully decoded
system.cpu.fetch2.storeInstructions              1557                       # Number of memory store instructions successfully decoded
system.cpu.fetch2.amoInstructions                   0                       # Number of memory atomic instructions successfully decoded
system.cpu.icache.demand_hits::.cpu.inst         3810                       # number of demand (read+write) hits
system.cpu.icache.demand_hits::total             3810                       # number of demand (read+write) hits
system.cpu.icache.overall_hits::.cpu.inst         3810                       # number of overall hits
system.cpu.icache.overall_hits::total            3810                       # number of overall hits
system.cpu.icache.demand_misses::.cpu.inst          448                       # number of demand (read+write) misses
system.cpu.icache.demand_misses::total            448                       # number of demand (read+write) misses
system.cpu.icache.overall_misses::.cpu.inst          448                       # number of overall misses
system.cpu.icache.overall_misses::total           448                       # number of overall misses
system.cpu.icache.demand_miss_latency::.cpu.inst     23701000                       # number of demand (read+write) miss cycles
system.cpu.icache.demand_miss_latency::total     23701000                       # number of demand (read+write) miss cycles
system.cpu.icache.overall_miss_latency::.cpu.inst     23701000                       # number of overall miss cycles
system.cpu.icache.overall_miss_latency::total     23701000                       # number of overall miss cycles
system.cpu.icache.demand_accesses::.cpu.inst         4258                       # number of demand (read+write) accesses
system.cpu.icache.demand_accesses::total         4258                       # number of demand (read+write) accesses
system.cpu.icache.overall_accesses::.cpu.inst         4258                       # number of overall (read+write) accesses
system.cpu.icache.overall_accesses::total         4258                       # number of overall (read+write) accesses
system.cpu.icache.demand_miss_rate::.cpu.inst     0.105214                       # miss rate for demand accesses
system.cpu.icache.demand_miss_rate::total     0.105214                       # miss rate for demand accesses
system.cpu.icache.overall_miss_rate::.cpu.inst     0.105214                       # miss rate for overall accesses
system.cpu.icache.overall_miss_rate::total     0.105214                       # miss rate for overall accesses
system.cpu.icache.demand_avg_miss_latency::.cpu.inst 52904.017857                       # average overall miss latency
system.cpu.icache.demand_avg_miss_latency::total 52904.017857                       # average overall miss latency
system.cpu.icache.overall_avg_miss_latency::.cpu.inst 52904.017857                       # average overall miss latency
system.cpu.icache.overall_avg_miss_latency::total 52904.017857                       # average overall miss latency
system.cpu.icache.blocked_cycles::no_mshrs            0                       # number of cycles access was blocked
system.cpu.icache.blocked_cycles::no_targets            0                       # number of cycles access was blocked
system.cpu.icache.blocked::no_mshrs                 0                       # number of cycles access was blocked
system.cpu.icache.blocked::no_targets               0                       # number of cycles access was blocked
system.cpu.icache.avg_blocked_cycles::no_mshrs          nan                       # average number of cycles each access was blocked
system.cpu.icache.avg_blocked_cycles::no_targets          nan                       # average number of cycles each access was blocked
system.cpu.icache.writebacks::.writebacks          118                       # number of writebacks
system.cpu.icache.writebacks::total               118                       # number of writebacks
system.cpu.icache.demand_mshr_misses::.cpu.inst          448                       # number of demand (read+write) MSHR misses
system.cpu.icache.demand_mshr_misses::total          448                       # number of demand (read+write) MSHR misses
system.cpu.icache.overall_mshr_misses::.cpu.inst          448                       # number of overall MSHR misses
system.cpu.icache.overall_mshr_misses::total          448                       # number of overall MSHR misses
system.cpu.icache.demand_mshr_miss_latency::.cpu.inst     23253000                       # number of demand (read+write) MSHR miss cycles
system.cpu.icache.demand_mshr_miss_latency::total     23253000                       # number of demand (read+write) MSHR miss cycles
system.cpu.icache.overall_mshr_miss_latency::.cpu.inst     23253000                       # number of overall MSHR miss cycles
system.cpu.icache.overall_mshr_miss_latency::total     23253000                       # number of overall MSHR miss cycles
system.cpu.icache.demand_mshr_miss_rate::.cpu.inst     0.105214                       # mshr miss rate for demand accesses
system.cpu.icache.demand_mshr_miss_rate::total     0.105214                       # mshr miss rate for demand accesses
system.cpu.icache.overall_mshr_miss_rate::.cpu.inst     0.105214                       # mshr miss rate for overall accesses
system.cpu.icache.overall_mshr_miss_rate::total     0.105214                       # mshr miss rate for overall accesses
system.cpu.icache.demand_avg_mshr_miss_latency::.cpu.inst 51904.017857                       # average overall mshr miss latency
system.cpu.icache.demand_avg_mshr_miss_latency::total 51904.017857                       # average overall mshr miss latency
system.cpu.icache.overall_avg_mshr_miss_latency::.cpu.inst 51904.017857                       # average overall mshr miss latency
system.cpu.icache.overall_avg_mshr_miss_latency::total 51904.017857                       # average overall mshr miss latency
system.cpu.icache.replacements                    118                       # number of replacements
system.cpu.icache.ReadReq_hits::.cpu.inst         3810                       # number of ReadReq hits
system.cpu.icache.ReadReq_hits::total            3810                       # number of ReadReq hits
system.cpu.icache.ReadReq_misses::.cpu.inst          448                       # number of ReadReq misses
system.cpu.icache.ReadReq_misses::total           448                       # number of ReadReq misses
system.cpu.icache.ReadReq_miss_latency::.cpu.inst     23701000                       # number of ReadReq miss cycles
system.cpu.icache.ReadReq_miss_latency::total     23701000                       # number of ReadReq miss cycles
system.cpu.icache.ReadReq_accesses::.cpu.inst         4258                       # number of ReadReq accesses(hits+misses)
system.cpu.icache.ReadReq_accesses::total         4258                       # number of ReadReq accesses(hits+misses)
system.cpu.icache.ReadReq_miss_rate::.cpu.inst     0.105214                       # miss rate for ReadReq accesses
system.cpu.icache.ReadReq_miss_rate::total     0.105214                       # miss rate for ReadReq accesses
system.cpu.icache.ReadReq_avg_miss_latency::.cpu.inst 52904.017857                       # average ReadReq miss latency
system.cpu.icache.ReadReq_avg_miss_latency::total 52904.017857                       # average ReadReq miss latency
system.cpu.icache.ReadReq_mshr_misses::.cpu.inst          448                       # number of ReadReq MSHR misses
system.cpu.icache.ReadReq_mshr_misses::total          448                       # number of ReadReq MSHR misses
system.cpu.icache.ReadReq_mshr_miss_latency::.cpu.inst     23253000                       # number of ReadReq MSHR miss cycles
system.cpu.icache.ReadReq_mshr_miss_latency::total     23253000                       # number of ReadReq MSHR miss cycles
system.cpu.icache.ReadReq_mshr_miss_rate::.cpu.inst     0.105214                       # mshr miss rate for ReadReq accesses
system.cpu.icache.ReadReq_mshr_miss_rate::total     0.105214                       # mshr miss rate for ReadReq accesses
system.cpu.icache.ReadReq_avg_mshr_miss_latency::.cpu.inst 51904.017857                       # average ReadReq mshr miss latency
system.cpu.icache.ReadReq_avg_mshr_miss_latency::total 51904.017857                       # average ReadReq mshr miss latency
system.cpu.icache.power_state.pwrStateResidencyTicks::UNDEFINED     35263000                       # Cumulative time (in ticks) in various power states
system.cpu.icache.tags.tagsinuse           188.201689                       # Cycle average of tags in use
system.cpu.icache.tags.total_refs                4258                       # Total number of references to valid blocks.
system.cpu.icache.tags.sampled_refs               448                       # Sample count of references to valid blocks.
system.cpu.icache.tags.avg_refs              9.504464                       # Average number of references to valid blocks.
system.cpu.icache.tags.warmup_cycle             74000                       # Cycle when the warmup percentage was hit.
system.cpu.icache.tags.occ_blocks::.cpu.inst   188.201689                       # Average occupied blocks per requestor
system.cpu.icache.tags.occ_percent::.cpu.inst     0.367581                       # Average percentage of cache occupancy
system.cpu.icache.tags.occ_percent::total     0.367581                       # Average percentage of cache occupancy
system.cpu.icache.tags.occ_task_id_blocks::1024          330                       # Occupied blocks per task id
system.cpu.icache.tags.age_task_id_blocks_1024::0          107                       # Occupied blocks per task id
system.cpu.icache.tags.age_task_id_blocks_1024::1          223                       # Occupied blocks per task id
system.cpu.icache.tags.occ_task_id_percent::1024     0.644531                       # Percentage of cache occupancy per task id
system.cpu.icache.tags.tag_accesses              8964                       # Number of tag accesses
system.cpu.icache.tags.data_accesses             8964                       # Number of data accesses
system.cpu.icache.tags.power_state.pwrStateResidencyTicks::UNDEFINED     35263000                       # Cumulative time (in ticks) in various power states
system.cpu.itb.instHits                             0                       # ITB inst hits
system.cpu.itb.instMisses                           0                       # ITB inst misses
system.cpu.itb.readHits                             0                       # DTB read hits
system.cpu.itb.readMisses                           0                       # DTB read misses
system.cpu.itb.writeHits                            0                       # DTB write hits
system.cpu.itb.writeMisses                          0                       # DTB write misses
system.cpu.itb.inserts                              0                       # Number of times an entry is inserted into the TLB
system.cpu.itb.flushTlb                             0                       # Number of times complete TLB was flushed
system.cpu.itb.flushTlbMva                          0                       # Number of times TLB was flushed by MVA
system.cpu.itb.flushTlbMvaAsid                      0                       # Number of times TLB was flushed by MVA & ASID
system.cpu.itb.flushTlbAsid                         0                       # Number of times TLB was flushed by ASID
system.cpu.itb.flushedEntries                       0                       # Number of entries that have been flushed from TLB
system.cpu.itb.alignFaults                          0                       # Number of TLB faults due to alignment restrictions
system.cpu.itb.prefetchFaults                       0                       # Number of TLB faults due to prefetch
system.cpu.itb.domainFaults                         0                       # Number of TLB faults due to domain restrictions
system.cpu.itb.permsFaults                          0                       # Number of TLB faults due to permissions restrictions
system.cpu.itb.readAccesses                         0                       # DTB read accesses
system.cpu.itb.writeAccesses                        0                       # DTB write accesses
system.cpu.itb.instAccesses                         0                       # ITB inst accesses
system.cpu.itb.hits                                 0                       # Total TLB (inst and data) hits
system.cpu.itb.misses                               0                       # Total TLB (inst and data) misses
system.cpu.itb.accesses                             0                       # Total TLB (inst and data) accesses
system.cpu.itb.stage2_mmu.stage2_tlb.instHits            0                       # ITB inst hits
system.cpu.itb.stage2_mmu.stage2_tlb.instMisses            0                       # ITB inst misses
system.cpu.itb.stage2_mmu.stage2_tlb.readHits            0                       # DTB read hits
system.cpu.itb.stage2_mmu.stage2_tlb.readMisses            0                       # DTB read misses
system.cpu.itb.stage2_mmu.stage2_tlb.writeHits            0                       # DTB write hits
system.cpu.itb.stage2_mmu.stage2_tlb.writeMisses            0                       # DTB write misses
system.cpu.itb.stage2_mmu.stage2_tlb.inserts            0                       # Number of times an entry is inserted into the TLB
system.cpu.itb.stage2_mmu.stage2_tlb.flushTlb            0                       # Number of times complete TLB was flushed
system.cpu.itb.stage2_mmu.stage2_tlb.flushTlbMva            0                       # Number of times TLB was flushed by MVA
system.cpu.itb.stage2_mmu.stage2_tlb.flushTlbMvaAsid            0                       # Number of times TLB was flushed by MVA & ASID
system.cpu.itb.stage2_mmu.stage2_tlb.flushTlbAsid            0                       # Number of times TLB was flushed by ASID
system.cpu.itb.stage2_mmu.stage2_tlb.flushedEntries            0                       # Number of entries that have been flushed from TLB
system.cpu.itb.stage2_mmu.stage2_tlb.alignFaults            0                       # Number of TLB faults due to alignment restrictions
system.cpu.itb.stage2_mmu.stage2_tlb.prefetchFaults            0                       # Number of TLB faults due to prefetch
system.cpu.itb.stage2_mmu.stage2_tlb.domainFaults            0                       # Number of TLB faults due to domain restrictions
system.cpu.itb.stage2_mmu.stage2_tlb.permsFaults            0                       # Number of TLB faults due to permissions restrictions
system.cpu.itb.stage2_mmu.stage2_tlb.readAccesses            0                       # DTB read accesses
system.cpu.itb.stage2_mmu.stage2_tlb.writeAccesses            0                       # DTB write accesses
system.cpu.itb.stage2_mmu.stage2_tlb.instAccesses            0                       # ITB inst accesses
system.cpu.itb.stage2_mmu.stage2_tlb.hits            0                       # Total TLB (inst and data) hits
system.cpu.itb.stage2_mmu.stage2_tlb.misses            0                       # Total TLB (inst and data) misses
system.cpu.itb.stage2_mmu.stage2_tlb.accesses            0                       # Total TLB (inst and data) accesses
system.cpu.itb.stage2_mmu.stage2_tlb.walker.walks            0                       # Table walker walks requested
system.cpu.itb.stage2_mmu.stage2_tlb.walker.requestOrigin_Requested::Data            0                       # Table walker requests started/completed, data/inst
system.cpu.itb.stage2_mmu.stage2_tlb.walker.requestOrigin_Requested::Inst            0                       # Table walker requests started/completed, data/inst
system.cpu.itb.stage2_mmu.stage2_tlb.walker.requestOrigin_Requested::total            0                       # Table walker requests started/completed, data/inst
system.cpu.itb.stage2_mmu.stage2_tlb.walker.requestOrigin_Completed::Data            0                       # Table walker requests started/completed, data/inst
system.cpu.itb.stage2_mmu.stage2_tlb.walker.requestOrigin_Completed::Inst            0                       # Table walker requests started/completed, data/inst
system.cpu.itb.stage2_mmu.stage2_tlb.walker.requestOrigin_Completed::total            0                       # Table walker requests started/completed, data/inst
system.cpu.itb.stage2_mmu.stage2_tlb.walker.requestOrigin::total            0                       # Table walker requests started/completed, data/inst
system.cpu.itb.stage2_mmu.stage2_tlb.walker.power_state.pwrStateResidencyTicks::UNDEFINED     35263000                       # Cumulative time (in ticks) in various power states
system.cpu.itb.walker.walks                         0                       # Table walker walks requested
system.cpu.itb.walker.requestOrigin_Requested::Data            0                       # Table walker requests started/completed, data/inst
system.cpu.itb.walker.requestOrigin_Requested::Inst            0                       # Table walker requests started/completed, data/inst
system.cpu.itb.walker.requestOrigin_Requested::total            0                       # Table walker requests started/completed, data/inst
system.cpu.itb.walker.requestOrigin_Completed::Data            0                       # Table walker requests started/completed, data/inst
system.cpu.itb.walker.requestOrigin_Completed::Inst            0                       # Table walker requests started/completed, data/inst
system.cpu.itb.walker.requestOrigin_Completed::total            0                       # Table walker requests started/completed, data/inst
system.cpu.itb.walker.requestOrigin::total            0                       # Table walker requests started/completed, data/inst
system.cpu.itb.walker.power_state.pwrStateResidencyTicks::UNDEFINED     35263000                       # Cumulative time (in ticks) in various power states
system.cpu.power_state.pwrStateResidencyTicks::ON     35263000                       # Cumulative time (in ticks) in various power states
system.cpu.thread_0.numInsts                    10572                       # Number of Instructions committed
system.cpu.thread_0.numOps                      12190                       # Number of Ops committed
system.cpu.thread_0.numMemRefs                      0                       # Number of Memory References
system.cpu_clk_domain.clock                       500                       # Clock period in ticks
system.cpu_voltage_domain.voltage                   1                       # Voltage in Volts
system.mem_ctrls.avgPriority_.writebacks::samples        87.00                       # Average QoS priority value for accepted requests
system.mem_ctrls.avgPriority_.cpu.inst::samples       408.00                       # Average QoS priority value for accepted requests
system.mem_ctrls.avgPriority_.cpu.data::samples       177.00                       # Average QoS priority value for accepted requests
system.mem_ctrls.priorityMinLatency      0.000000016842                       # per QoS priority minimum request to response latency (s)
system.mem_ctrls.priorityMaxLatency      0.000028116598                       # per QoS priority maximum request to response latency (s)
system.mem_ctrls.numReadWriteTurnArounds            4                       # Number of turnarounds from READ to WRITE
system.mem_ctrls.numWriteReadTurnArounds            4                       # Number of turnarounds from WRITE to READ
system.mem_ctrls.numStayReadState                1279                       # Number of times bus staying in READ state
system.mem_ctrls.numStayWriteState                 60                       # Number of times bus staying in WRITE state
system.mem_ctrls.readReqs                         626                       # Number of read requests accepted
system.mem_ctrls.writeReqs                        112                       # Number of write requests accepted
system.mem_ctrls.readBursts                       626                       # Number of controller read bursts, including those serviced by the write queue
system.mem_ctrls.writeBursts                      112                       # Number of controller write bursts, including those merged in the write queue
system.mem_ctrls.servicedByWrQ                     41                       # Number of controller read bursts serviced by the write queue
system.mem_ctrls.mergedWrBursts                    25                       # Number of controller write bursts merged with an existing one
system.mem_ctrls.neitherReadNorWriteReqs            0                       # Number of requests that are neither read nor write
system.mem_ctrls.avgRdQLen                       1.17                       # Average read queue length when enqueuing
system.mem_ctrls.avgWrQLen                      13.19                       # Average write queue length when enqueuing
system.mem_ctrls.numRdRetry                         0                       # Number of times read queue was full causing retry
system.mem_ctrls.numWrRetry                         0                       # Number of times write queue was full causing retry
system.mem_ctrls.readPktSize::0                     0                       # Read request sizes (log2)
system.mem_ctrls.readPktSize::1                     0                       # Read request sizes (log2)
system.mem_ctrls.readPktSize::2                     0                       # Read request sizes (log2)
system.mem_ctrls.readPktSize::3                     0                       # Read request sizes (log2)
system.mem_ctrls.readPktSize::4                     0                       # Read request sizes (log2)
system.mem_ctrls.readPktSize::5                     0                       # Read request sizes (log2)
system.mem_ctrls.readPktSize::6                   626                       # Read request sizes (log2)
system.mem_ctrls.writePktSize::0                    0                       # Write request sizes (log2)
system.mem_ctrls.writePktSize::1                    0                       # Write request sizes (log2)
system.mem_ctrls.writePktSize::2                    0                       # Write request sizes (log2)
system.mem_ctrls.writePktSize::3                    0                       # Write request sizes (log2)
system.mem_ctrls.writePktSize::4                    0                       # Write request sizes (log2)
system.mem_ctrls.writePktSize::5                    0                       # Write request sizes (log2)
system.mem_ctrls.writePktSize::6                  112                       # Write request sizes (log2)
system.mem_ctrls.rdQLenPdf::0                     490                       # What read queue length does an incoming req see
system.mem_ctrls.rdQLenPdf::1                      86                       # What read queue length does an incoming req see
system.mem_ctrls.rdQLenPdf::2                       9                       # What read queue length does an incoming req see
system.mem_ctrls.rdQLenPdf::3                       0                       # What read queue length does an incoming req see
system.mem_ctrls.rdQLenPdf::4                       0                       # What read queue length does an incoming req see
system.mem_ctrls.rdQLenPdf::5                       0                       # What read queue length does an incoming req see
system.mem_ctrls.rdQLenPdf::6                       0                       # What read queue length does an incoming req see
system.mem_ctrls.rdQLenPdf::7                       0                       # What read queue length does an incoming req see
system.mem_ctrls.rdQLenPdf::8                       0                       # What read queue length does an incoming req see
system.mem_ctrls.rdQLenPdf::9                       0                       # What read queue length does an incoming req see
system.mem_ctrls.rdQLenPdf::10                      0                       # What read queue length does an incoming req see
system.mem_ctrls.rdQLenPdf::11                      0                       # What read queue length does an incoming req see
system.mem_ctrls.rdQLenPdf::12                      0                       # What read queue length does an incoming req see
system.mem_ctrls.rdQLenPdf::13                      0                       # What read queue length does an incoming req see
system.mem_ctrls.rdQLenPdf::14                      0                       # What read queue length does an incoming req see
system.mem_ctrls.rdQLenPdf::15                      0                       # What read queue length does an incoming req see
system.mem_ctrls.rdQLenPdf::16                      0                       # What read queue length does an incoming req see
system.mem_ctrls.rdQLenPdf::17                      0                       # What read queue length does an incoming req see
system.mem_ctrls.rdQLenPdf::18                      0                       # What read queue length does an incoming req see
system.mem_ctrls.rdQLenPdf::19                      0                       # What read queue length does an incoming req see
system.mem_ctrls.rdQLenPdf::20                      0                       # What read queue length does an incoming req see
system.mem_ctrls.rdQLenPdf::21                      0                       # What read queue length does an incoming req see
system.mem_ctrls.rdQLenPdf::22                      0                       # What read queue length does an incoming req see
system.mem_ctrls.rdQLenPdf::23                      0                       # What read queue length does an incoming req see
system.mem_ctrls.rdQLenPdf::24                      0                       # What read queue length does an incoming req see
system.mem_ctrls.rdQLenPdf::25                      0                       # What read queue length does an incoming req see
system.mem_ctrls.rdQLenPdf::26                      0                       # What read queue length does an incoming req see
system.mem_ctrls.rdQLenPdf::27                      0                       # What read queue length does an incoming req see
system.mem_ctrls.rdQLenPdf::28                      0                       # What read queue length does an incoming req see
system.mem_ctrls.rdQLenPdf::29                      0                       # What read queue length does an incoming req see
system.mem_ctrls.rdQLenPdf::30                      0                       # What read queue length does an incoming req see
system.mem_ctrls.rdQLenPdf::31                      0                       # What read queue length does an incoming req see
system.mem_ctrls.wrQLenPdf::0                       1                       # What write queue length does an incoming req see
system.mem_ctrls.wrQLenPdf::1                       1                       # What write queue length does an incoming req see
system.mem_ctrls.wrQLenPdf::2                       1                       # What write queue length does an incoming req see
system.mem_ctrls.wrQLenPdf::3                       1                       # What write queue length does an incoming req see
system.mem_ctrls.wrQLenPdf::4                       1                       # What write queue length does an incoming req see
system.mem_ctrls.wrQLenPdf::5                       1                       # What write queue length does an incoming req see
system.mem_ctrls.wrQLenPdf::6                       1                       # What write queue length does an incoming req see
system.mem_ctrls.wrQLenPdf::7                       1                       # What write queue length does an incoming req see
system.mem_ctrls.wrQLenPdf::8                       1                       # What write queue length does an incoming req see
system.mem_ctrls.wrQLenPdf::9                       1                       # What write queue length does an incoming req see
system.mem_ctrls.wrQLenPdf::10                      1                       # What write queue length does an incoming req see
system.mem_ctrls.wrQLenPdf::11                      1                       # What write queue length does an incoming req see
system.mem_ctrls.wrQLenPdf::12                      1                       # What write queue length does an incoming req see
system.mem_ctrls.wrQLenPdf::13                      1                       # What write queue length does an incoming req see
system.mem_ctrls.wrQLenPdf::14                      1                       # What write queue length does an incoming req see
system.mem_ctrls.wrQLenPdf::15                      1                       # What write queue length does an incoming req see
system.mem_ctrls.wrQLenPdf::16                      1                       # What write queue length does an incoming req see
system.mem_ctrls.wrQLenPdf::17                      5                       # What write queue length does an incoming req see
system.mem_ctrls.wrQLenPdf::18                      5                       # What write queue length does an incoming req see
system.mem_ctrls.wrQLenPdf::19                      5                       # What write queue length does an incoming req see
system.mem_ctrls.wrQLenPdf::20                      5                       # What write queue length does an incoming req see
system.mem_ctrls.wrQLenPdf::21                      5                       # What write queue length does an incoming req see
system.mem_ctrls.wrQLenPdf::22                      5                       # What write queue length does an incoming req see
system.mem_ctrls.wrQLenPdf::23                      4                       # What write queue length does an incoming req see
system.mem_ctrls.wrQLenPdf::24                      4                       # What write queue length does an incoming req see
system.mem_ctrls.wrQLenPdf::25                      4                       # What write queue length does an incoming req see
system.mem_ctrls.wrQLenPdf::26                      4                       # What write queue length does an incoming req see
system.mem_ctrls.wrQLenPdf::27                      4                       # What write queue length does an incoming req see
system.mem_ctrls.wrQLenPdf::28                      4                       # What write queue length does an incoming req see
system.mem_ctrls.wrQLenPdf::29                      4                       # What write queue length does an incoming req see
system.mem_ctrls.wrQLenPdf::30                      4                       # What write queue length does an incoming req see
system.mem_ctrls.wrQLenPdf::31                      4                       # What write queue length does an incoming req see
system.mem_ctrls.wrQLenPdf::32                      4                       # What write queue length does an incoming req see
system.mem_ctrls.wrQLenPdf::33                      0                       # What write queue length does an incoming req see
system.mem_ctrls.wrQLenPdf::34                      0                       # What write queue length does an incoming req see
system.mem_ctrls.wrQLenPdf::35                      0                       # What write queue length does an incoming req see
system.mem_ctrls.wrQLenPdf::36                      0                       # What write queue length does an incoming req see
system.mem_ctrls.wrQLenPdf::37                      0                       # What write queue length does an incoming req see
system.mem_ctrls.wrQLenPdf::38                      0                       # What write queue length does an incoming req see
system.mem_ctrls.wrQLenPdf::39                      0                       # What write queue length does an incoming req see
system.mem_ctrls.wrQLenPdf::40                      0                       # What write queue length does an incoming req see
system.mem_ctrls.wrQLenPdf::41                      0                       # What write queue length does an incoming req see
system.mem_ctrls.wrQLenPdf::42                      0                       # What write queue length does an incoming req see
system.mem_ctrls.wrQLenPdf::43                      0                       # What write queue length does an incoming req see
system.mem_ctrls.wrQLenPdf::44                      0                       # What write queue length does an incoming req see
system.mem_ctrls.wrQLenPdf::45                      0                       # What write queue length does an incoming req see
system.mem_ctrls.wrQLenPdf::46                      0                       # What write queue length does an incoming req see
system.mem_ctrls.wrQLenPdf::47                      0                       # What write queue length does an incoming req see
system.mem_ctrls.wrQLenPdf::48                      0                       # What write queue length does an incoming req see
system.mem_ctrls.wrQLenPdf::49                      0                       # What write queue length does an incoming req see
system.mem_ctrls.wrQLenPdf::50                      0                       # What write queue length does an incoming req see
system.mem_ctrls.wrQLenPdf::51                      0                       # What write queue length does an incoming req see
system.mem_ctrls.wrQLenPdf::52                      0                       # What write queue length does an incoming req see
system.mem_ctrls.wrQLenPdf::53                      0                       # What write queue length does an incoming req see
system.mem_ctrls.wrQLenPdf::54                      0                       # What write queue length does an incoming req see
system.mem_ctrls.wrQLenPdf::55                      0                       # What write queue length does an incoming req see
system.mem_ctrls.wrQLenPdf::56                      0                       # What write queue length does an incoming req see
system.mem_ctrls.wrQLenPdf::57                      0                       # What write queue length does an incoming req see
system.mem_ctrls.wrQLenPdf::58                      0                       # What write queue length does an incoming req see
system.mem_ctrls.wrQLenPdf::59                      0                       # What write queue length does an incoming req see
system.mem_ctrls.wrQLenPdf::60                      0                       # What write queue length does an incoming req see
system.mem_ctrls.wrQLenPdf::61                      0                       # What write queue length does an incoming req see
system.mem_ctrls.wrQLenPdf::62                      0                       # What write queue length does an incoming req see
system.mem_ctrls.wrQLenPdf::63                      0                       # What write queue length does an incoming req see
system.mem_ctrls.rdPerTurnAround::samples            4                       # Reads before turning the bus around for writes
system.mem_ctrls.rdPerTurnAround::mean            144                       # Reads before turning the bus around for writes
system.mem_ctrls.rdPerTurnAround::gmean     78.610012                       # Reads before turning the bus around for writes
system.mem_ctrls.rdPerTurnAround::stdev    182.418932                       # Reads before turning the bus around for writes
system.mem_ctrls.rdPerTurnAround::16-31             1     25.00%     25.00% # Reads before turning the bus around for writes
system.mem_ctrls.rdPerTurnAround::64-79             2     50.00%     75.00% # Reads before turning the bus around for writes
system.mem_ctrls.rdPerTurnAround::400-415            1     25.00%    100.00% # Reads before turning the bus around for writes
system.mem_ctrls.rdPerTurnAround::total             4                       # Reads before turning the bus around for writes
system.mem_ctrls.wrPerTurnAround::samples            4                       # Writes before turning the bus around for reads
system.mem_ctrls.wrPerTurnAround::mean             16                       # Writes before turning the bus around for reads
system.mem_ctrls.wrPerTurnAround::gmean     16.000000                       # Writes before turning the bus around for reads
system.mem_ctrls.wrPerTurnAround::16                4    100.00%    100.00% # Writes before turning the bus around for reads
system.mem_ctrls.wrPerTurnAround::total             4                       # Writes before turning the bus around for reads
system.mem_ctrls.bytesReadWrQ                    2624                       # Total number of bytes read from write queue
system.mem_ctrls.bytesReadSys                   40064                       # Total read bytes from the system interface side
system.mem_ctrls.bytesWrittenSys                 7168                       # Total written bytes from the system interface side
system.mem_ctrls.avgRdBWSys                   1136.15                       # Average system read bandwidth in MiByte/s
system.mem_ctrls.avgWrBWSys                    203.27                       # Average system write bandwidth in MiByte/s
system.mem_ctrls.totGap                      35206500                       # Total gap between requests
system.mem_ctrls.avgGap                      47705.28                       # Average gap between requests
system.mem_ctrls.requestorReadBytes::.cpu.inst        26112                       # Per-requestor bytes read from memory
system.mem_ctrls.requestorReadBytes::.cpu.data        11328                       # Per-requestor bytes read from memory
system.mem_ctrls.requestorWriteBytes::.writebacks         4096                       # Per-requestor bytes write to memory
system.mem_ctrls.requestorReadRate::.cpu.inst 740492867.878512978554                       # Per-requestor bytes read from memory rate (Bytes/sec)
system.mem_ctrls.requestorReadRate::.cpu.data 321243229.447296082973                       # Per-requestor bytes read from memory rate (Bytes/sec)
system.mem_ctrls.requestorWriteRate::.writebacks 116155743.980943202972                       # Per-requestor bytes write to memory rate (Bytes/sec)
system.mem_ctrls.requestorReadAccesses::.cpu.inst          448                       # Per-requestor read serviced memory accesses
system.mem_ctrls.requestorReadAccesses::.cpu.data          178                       # Per-requestor read serviced memory accesses
system.mem_ctrls.requestorWriteAccesses::.writebacks          112                       # Per-requestor write serviced memory accesses
system.mem_ctrls.requestorReadTotalLat::.cpu.inst      9451286                       # Per-requestor read total memory access latency
system.mem_ctrls.requestorReadTotalLat::.cpu.data      4319028                       # Per-requestor read total memory access latency
system.mem_ctrls.requestorWriteTotalLat::.writebacks    330675348                       # Per-requestor write total memory access latency
system.mem_ctrls.requestorReadAvgLat::.cpu.inst     21096.62                       # Per-requestor read average memory access latency
system.mem_ctrls.requestorReadAvgLat::.cpu.data     24264.20                       # Per-requestor read average memory access latency
system.mem_ctrls.requestorWriteAvgLat::.writebacks   2952458.46                       # Per-requestor write average memory access latency
system.mem_ctrls.dram.bytes_read::.cpu.inst        28672                       # Number of bytes read from this memory
system.mem_ctrls.dram.bytes_read::.cpu.data        11392                       # Number of bytes read from this memory
system.mem_ctrls.dram.bytes_read::total         40064                       # Number of bytes read from this memory
system.mem_ctrls.dram.bytes_inst_read::.cpu.inst        28672                       # Number of instructions bytes read from this memory
system.mem_ctrls.dram.bytes_inst_read::total        28672                       # Number of instructions bytes read from this memory
system.mem_ctrls.dram.num_reads::.cpu.inst          448                       # Number of read requests responded to by this memory
system.mem_ctrls.dram.num_reads::.cpu.data          178                       # Number of read requests responded to by this memory
system.mem_ctrls.dram.num_reads::total            626                       # Number of read requests responded to by this memory
system.mem_ctrls.dram.bw_read::.cpu.inst    813090208                       # Total read bandwidth from this memory (bytes/s)
system.mem_ctrls.dram.bw_read::.cpu.data    323058163                       # Total read bandwidth from this memory (bytes/s)
system.mem_ctrls.dram.bw_read::total       1136148371                       # Total read bandwidth from this memory (bytes/s)
system.mem_ctrls.dram.bw_inst_read::.cpu.inst    813090208                       # Instruction read bandwidth from this memory (bytes/s)
system.mem_ctrls.dram.bw_inst_read::total    813090208                       # Instruction read bandwidth from this memory (bytes/s)
system.mem_ctrls.dram.bw_total::.cpu.inst    813090208                       # Total bandwidth to/from this memory (bytes/s)
system.mem_ctrls.dram.bw_total::.cpu.data    323058163                       # Total bandwidth to/from this memory (bytes/s)
system.mem_ctrls.dram.bw_total::total      1136148371                       # Total bandwidth to/from this memory (bytes/s)
system.mem_ctrls.dram.readBursts                  585                       # Number of DRAM read bursts
system.mem_ctrls.dram.writeBursts                  64                       # Number of DRAM write bursts
system.mem_ctrls.dram.perBankRdBursts::0           59                       # Per bank write bursts
system.mem_ctrls.dram.perBankRdBursts::1            2                       # Per bank write bursts
system.mem_ctrls.dram.perBankRdBursts::2           23                       # Per bank write bursts
system.mem_ctrls.dram.perBankRdBursts::3           49                       # Per bank write bursts
system.mem_ctrls.dram.perBankRdBursts::4           12                       # Per bank write bursts
system.mem_ctrls.dram.perBankRdBursts::5           35                       # Per bank write bursts
system.mem_ctrls.dram.perBankRdBursts::6           43                       # Per bank write bursts
system.mem_ctrls.dram.perBankRdBursts::7           55                       # Per bank write bursts
system.mem_ctrls.dram.perBankRdBursts::8           56                       # Per bank write bursts
system.mem_ctrls.dram.perBankRdBursts::9           83                       # Per bank write bursts
system.mem_ctrls.dram.perBankRdBursts::10           54                       # Per bank write bursts
system.mem_ctrls.dram.perBankRdBursts::11           83                       # Per bank write bursts
system.mem_ctrls.dram.perBankRdBursts::12           14                       # Per bank write bursts
system.mem_ctrls.dram.perBankRdBursts::13            7                       # Per bank write bursts
system.mem_ctrls.dram.perBankRdBursts::14           10                       # Per bank write bursts
system.mem_ctrls.dram.perBankRdBursts::15            0                       # Per bank write bursts
system.mem_ctrls.dram.perBankWrBursts::0           13                       # Per bank write bursts
system.mem_ctrls.dram.perBankWrBursts::1            0                       # Per bank write bursts
system.mem_ctrls.dram.perBankWrBursts::2            3                       # Per bank write bursts
system.mem_ctrls.dram.perBankWrBursts::3            4                       # Per bank write bursts
system.mem_ctrls.dram.perBankWrBursts::4            0                       # Per bank write bursts
system.mem_ctrls.dram.perBankWrBursts::5            1                       # Per bank write bursts
system.mem_ctrls.dram.perBankWrBursts::6            5                       # Per bank write bursts
system.mem_ctrls.dram.perBankWrBursts::7            9                       # Per bank write bursts
system.mem_ctrls.dram.perBankWrBursts::8           11                       # Per bank write bursts
system.mem_ctrls.dram.perBankWrBursts::9            5                       # Per bank write bursts
system.mem_ctrls.dram.perBankWrBursts::10            0                       # Per bank write bursts
system.mem_ctrls.dram.perBankWrBursts::11           13                       # Per bank write bursts
system.mem_ctrls.dram.perBankWrBursts::12            0                       # Per bank write bursts
system.mem_ctrls.dram.perBankWrBursts::13            0                       # Per bank write bursts
system.mem_ctrls.dram.perBankWrBursts::14            0                       # Per bank write bursts
system.mem_ctrls.dram.perBankWrBursts::15            0                       # Per bank write bursts
system.mem_ctrls.dram.totQLat                 3917744                       # Total ticks spent queuing
system.mem_ctrls.dram.totBusLat               2194920                       # Total ticks spent in databus transfers
system.mem_ctrls.dram.totMemAccLat           13770314                       # Total ticks spent from burst creation until serviced by the DRAM
system.mem_ctrls.dram.avgQLat                 6697.00                       # Average queueing delay per DRAM burst
system.mem_ctrls.dram.avgBusLat               3752.00                       # Average bus latency per DRAM burst
system.mem_ctrls.dram.avgMemAccLat           23539.00                       # Average memory access latency per DRAM burst
system.mem_ctrls.dram.readRowHits                 475                       # Number of row buffer hits during reads
system.mem_ctrls.dram.writeRowHits                 56                       # Number of row buffer hits during writes
system.mem_ctrls.dram.readRowHitRate            81.20                       # Row buffer hit rate for reads
system.mem_ctrls.dram.writeRowHitRate           87.50                       # Row buffer hit rate for writes
system.mem_ctrls.dram.bytesPerActivate::samples          107                       # Bytes accessed per row activation
system.mem_ctrls.dram.bytesPerActivate::mean   354.093458                       # Bytes accessed per row activation
system.mem_ctrls.dram.bytesPerActivate::gmean   236.996577                       # Bytes accessed per row activation
system.mem_ctrls.dram.bytesPerActivate::stdev   320.279758                       # Bytes accessed per row activation
system.mem_ctrls.dram.bytesPerActivate::0-127           19     17.76%     17.76% # Bytes accessed per row activation
system.mem_ctrls.dram.bytesPerActivate::128-255           33     30.84%     48.60% # Bytes accessed per row activation
system.mem_ctrls.dram.bytesPerActivate::256-383           22     20.56%     69.16% # Bytes accessed per row activation
system.mem_ctrls.dram.bytesPerActivate::384-511            6      5.61%     74.77% # Bytes accessed per row activation
system.mem_ctrls.dram.bytesPerActivate::512-639            3      2.80%     77.57% # Bytes accessed per row activation
system.mem_ctrls.dram.bytesPerActivate::640-767            4      3.74%     81.31% # Bytes accessed per row activation
system.mem_ctrls.dram.bytesPerActivate::768-895            7      6.54%     87.85% # Bytes accessed per row activation
system.mem_ctrls.dram.bytesPerActivate::1024-1151           13     12.15%    100.00% # Bytes accessed per row activation
system.mem_ctrls.dram.bytesPerActivate::total          107                       # Bytes accessed per row activation
system.mem_ctrls.dram.bytesRead                 37440                       # Total number of bytes read from DRAM
system.mem_ctrls.dram.bytesWritten               4096                       # Total number of bytes written to DRAM
system.mem_ctrls.dram.avgRdBW             1061.736097                       # Average DRAM read bandwidth in MiBytes/s
system.mem_ctrls.dram.avgWrBW              116.155744                       # Average DRAM write bandwidth in MiBytes/s
system.mem_ctrls.dram.peakBW                 17057.00                       # Theoretical peak bandwidth in MiByte/s
system.mem_ctrls.dram.busUtil                    6.91                       # Data bus utilization in percentage
system.mem_ctrls.dram.busUtilRead                6.22                       # Data bus utilization in percentage for reads
system.mem_ctrls.dram.busUtilWrite               0.68                       # Data bus utilization in percentage for writes
system.mem_ctrls.dram.pageHitRate               81.82                       # Row buffer hit rate, read and write combined
system.mem_ctrls.dram.power_state.pwrStateResidencyTicks::UNDEFINED     35263000                       # Cumulative time (in ticks) in various power states
system.mem_ctrls.dram.rank0.actEnergy    505709.568000                       # Energy for activate commands per rank (pJ)
system.mem_ctrls.dram.rank0.preEnergy    218411.424000                       # Energy for precharge commands per rank (pJ)
system.mem_ctrls.dram.rank0.readEnergy   1839950.784000                       # Energy for read commands per rank (pJ)
system.mem_ctrls.dram.rank0.writeEnergy  178069.920000                       # Energy for write commands per rank (pJ)
system.mem_ctrls.dram.rank0.refreshEnergy 2578434.432000                       # Energy for refresh commands per rank (pJ)
system.mem_ctrls.dram.rank0.actBackEnergy 17684886.912000                       # Energy for active background per rank (pJ)
system.mem_ctrls.dram.rank0.preBackEnergy 785466.192000                       # Energy for precharge background per rank (pJ)
system.mem_ctrls.dram.rank0.actPowerDownEnergy            0                       # Energy for active power-down per rank (pJ)
system.mem_ctrls.dram.rank0.prePowerDownEnergy            0                       # Energy for precharge power-down per rank (pJ)
system.mem_ctrls.dram.rank0.selfRefreshEnergy            0                       # Energy for self refresh per rank (pJ)
system.mem_ctrls.dram.rank0.totalEnergy  23790929.232000                       # Total energy per rank (pJ)
system.mem_ctrls.dram.rank0.averagePower   674.671163                       # Core power per rank (mW)
system.mem_ctrls.dram.rank0.totalIdleTime            0                       # Total Idle time Per DRAM Rank
system.mem_ctrls.dram.rank0.pwrStateTime::IDLE      1627730                       # Time in different power states
system.mem_ctrls.dram.rank0.pwrStateTime::REF      1040000                       # Time in different power states
system.mem_ctrls.dram.rank0.pwrStateTime::SREF            0                       # Time in different power states
system.mem_ctrls.dram.rank0.pwrStateTime::PRE_PDN            0                       # Time in different power states
system.mem_ctrls.dram.rank0.pwrStateTime::ACT     32595270                       # Time in different power states
system.mem_ctrls.dram.rank0.pwrStateTime::ACT_PDN            0                       # Time in different power states
system.mem_ctrls.dram.rank1.actEnergy    737493.120000                       # Energy for activate commands per rank (pJ)
system.mem_ctrls.dram.rank1.preEnergy    338017.680000                       # Energy for precharge commands per rank (pJ)
system.mem_ctrls.dram.rank1.readEnergy   2031888.096000                       # Energy for read commands per rank (pJ)
system.mem_ctrls.dram.rank1.writeEnergy  147543.648000                       # Energy for write commands per rank (pJ)
system.mem_ctrls.dram.rank1.refreshEnergy 2578434.432000                       # Energy for refresh commands per rank (pJ)
system.mem_ctrls.dram.rank1.actBackEnergy 18214819.392000                       # Energy for active background per rank (pJ)
system.mem_ctrls.dram.rank1.preBackEnergy 339841.152000                       # Energy for precharge background per rank (pJ)
system.mem_ctrls.dram.rank1.actPowerDownEnergy            0                       # Energy for active power-down per rank (pJ)
system.mem_ctrls.dram.rank1.prePowerDownEnergy            0                       # Energy for precharge power-down per rank (pJ)
system.mem_ctrls.dram.rank1.selfRefreshEnergy            0                       # Energy for self refresh per rank (pJ)
system.mem_ctrls.dram.rank1.totalEnergy  24388037.520000                       # Total energy per rank (pJ)
system.mem_ctrls.dram.rank1.averagePower   691.604161                       # Core power per rank (mW)
system.mem_ctrls.dram.rank1.totalIdleTime            0                       # Total Idle time Per DRAM Rank
system.mem_ctrls.dram.rank1.pwrStateTime::IDLE       662590                       # Time in different power states
system.mem_ctrls.dram.rank1.pwrStateTime::REF      1040000                       # Time in different power states
system.mem_ctrls.dram.rank1.pwrStateTime::SREF            0                       # Time in different power states
system.mem_ctrls.dram.rank1.pwrStateTime::PRE_PDN            0                       # Time in different power states
system.mem_ctrls.dram.rank1.pwrStateTime::ACT     33560410                       # Time in different power states
system.mem_ctrls.dram.rank1.pwrStateTime::ACT_PDN            0                       # Time in different power states
system.mem_ctrls.power_state.pwrStateResidencyTicks::UNDEFINED     35263000                       # Cumulative time (in ticks) in various power states
system.membus.trans_dist::ReadResp                556                       # Transaction distribution
system.membus.trans_dist::WritebackClean          118                       # Transaction distribution
system.membus.trans_dist::ReadExReq                70                       # Transaction distribution
system.membus.trans_dist::ReadExResp               70                       # Transaction distribution
system.membus.trans_dist::ReadCleanReq            448                       # Transaction distribution
system.membus.trans_dist::ReadSharedReq           108                       # Transaction distribution
system.membus.pkt_count_system.cpu.icache.mem_side_port::system.mem_ctrls.port         1014                       # Packet count per connected requestor and responder (bytes)
system.membus.pkt_count_system.cpu.dcache.mem_side_port::system.mem_ctrls.port          356                       # Packet count per connected requestor and responder (bytes)
system.membus.pkt_count::total                   1370                       # Packet count per connected requestor and responder (bytes)
system.membus.pkt_size_system.cpu.icache.mem_side_port::system.mem_ctrls.port        36224                       # Cumulative packet size per connected requestor and responder (bytes)
system.membus.pkt_size_system.cpu.dcache.mem_side_port::system.mem_ctrls.port        11392                       # Cumulative packet size per connected requestor and responder (bytes)
system.membus.pkt_size::total                   47616                       # Cumulative packet size per connected requestor and responder (bytes)
system.membus.snoops                                0                       # Total snoops (count)
system.membus.snoopTraffic                          0                       # Total snoop traffic (bytes)
system.membus.snoop_fanout::samples               626                       # Request fanout histogram
system.membus.snoop_fanout::mean             0.044728                       # Request fanout histogram
system.membus.snoop_fanout::stdev            0.206872                       # Request fanout histogram
system.membus.snoop_fanout::underflows              0      0.00%      0.00% # Request fanout histogram
system.membus.snoop_fanout::0                     598     95.53%     95.53% # Request fanout histogram
system.membus.snoop_fanout::1                      28      4.47%    100.00% # Request fanout histogram
system.membus.snoop_fanout::2                       0      0.00%    100.00% # Request fanout histogram
system.membus.snoop_fanout::overflows               0      0.00%    100.00% # Request fanout histogram
system.membus.snoop_fanout::min_value               0                       # Request fanout histogram
system.membus.snoop_fanout::max_value               1                       # Request fanout histogram
system.membus.snoop_fanout::total                 626                       # Request fanout histogram
system.membus.power_state.pwrStateResidencyTicks::UNDEFINED     35263000                       # Cumulative time (in ticks) in various power states
system.membus.reqLayer0.occupancy             1310000                       # Layer occupancy (ticks)
system.membus.reqLayer0.utilization               3.7                       # Layer utilization (%)
system.membus.respLayer1.occupancy            2329714                       # Layer occupancy (ticks)
system.membus.respLayer1.utilization              6.6                       # Layer utilization (%)
system.membus.respLayer2.occupancy             940384                       # Layer occupancy (ticks)
system.membus.respLayer2.utilization              2.7                       # Layer utilization (%)
system.voltage_domain.voltage                       1                       # Voltage in Volts

---------- End Simulation Statistics   ----------
