---------- Begin Simulation Statistics ----------
final_tick                                   46422000                       # Number of ticks from beginning of simulation (restored from checkpoints and never reset)
host_inst_rate                                 136310                       # Simulator instruction rate (inst/s)
host_mem_usage                                 686508                       # Number of bytes of host memory used
host_op_rate                                   156779                       # Simulator op (including micro ops) rate (op/s)
host_seconds                                     0.08                       # Real time elapsed on the host
host_tick_rate                              558006160                       # Simulator tick rate (ticks/s)
sim_freq                                 1000000000000                       # Frequency of simulated ticks
sim_insts                                       11324                       # Number of instructions simulated
sim_ops                                         13040                       # Number of ops (including micro ops) simulated
sim_seconds                                  0.000046                       # Number of seconds simulated
sim_ticks                                    46422000                       # Number of ticks simulated
system.cpu.Branches                              2305                       # Number of branches fetched
system.cpu.committedInsts                       11324                       # Number of instructions committed
system.cpu.committedOps                         13040                       # Number of ops (including micro ops) committed
system.cpu.dtb.accesses                             0                       # DTB accesses
system.cpu.dtb.align_faults                         0                       # Number of TLB faults due to alignment restrictions
system.cpu.dtb.domain_faults                        0                       # Number of TLB faults due to domain restrictions
system.cpu.dtb.flush_entries                        0                       # Number of entries that have been flushed from TLB
system.cpu.dtb.flush_tlb                            0                       # Number of times complete TLB was flushed
system.cpu.dtb.flush_tlb_asid                       0                       # Number of times TLB was flushed by ASID
system.cpu.dtb.flush_tlb_mva                        0                       # Number of times TLB was flushed by MVA
system.cpu.dtb.flush_tlb_mva_asid                   0                       # Number of times TLB was flushed by MVA & ASID
system.cpu.dtb.hits                                 0                       # DTB hits
system.cpu.dtb.inst_accesses                        0                       # ITB inst accesses
system.cpu.dtb.inst_hits                            0                       # ITB inst hits
system.cpu.dtb.inst_misses                          0                       # ITB inst misses
system.cpu.dtb.misses                               0                       # DTB misses
system.cpu.dtb.perms_faults                         0                       # Number of TLB faults due to permissions restrictions
system.cpu.dtb.prefetch_faults                      0                       # Number of TLB faults due to prefetch
system.cpu.dtb.read_accesses                        0                       # DTB read accesses
system.cpu.dtb.read_hits                            0                       # DTB read hits
system.cpu.dtb.read_misses                          0                       # DTB read misses
system.cpu.dtb.stage2_mmu.stage2_tlb.accesses            0                       # DTB accesses
system.cpu.dtb.stage2_mmu.stage2_tlb.align_faults            0                       # Number of TLB faults due to alignment restrictions
system.cpu.dtb.stage2_mmu.stage2_tlb.domain_faults            0                       # Number of TLB faults due to domain restrictions
system.cpu.dtb.stage2_mmu.stage2_tlb.flush_entries            0                       # Number of entries that have been flushed from TLB
system.cpu.dtb.stage2_mmu.stage2_tlb.flush_tlb            0                       # Number of times complete TLB was flushed
system.cpu.dtb.stage2_mmu.stage2_tlb.flush_tlb_asid            0                       # Number of times TLB was flushed by ASID
system.cpu.dtb.stage2_mmu.stage2_tlb.flush_tlb_mva            0                       # Number of times TLB was flushed by MVA
system.cpu.dtb.stage2_mmu.stage2_tlb.flush_tlb_mva_asid            0                       # Number of times TLB was flushed by MVA & ASID
system.cpu.dtb.stage2_mmu.stage2_tlb.hits            0                       # DTB hits
system.cpu.dtb.stage2_mmu.stage2_tlb.inst_accesses            0                       # ITB inst accesses
system.cpu.dtb.stage2_mmu.stage2_tlb.inst_hits            0                       # ITB inst hits
system.cpu.dtb.stage2_mmu.stage2_tlb.inst_misses            0                       # ITB inst misses
system.cpu.dtb.stage2_mmu.stage2_tlb.misses            0                       # DTB misses
system.cpu.dtb.stage2_mmu.stage2_tlb.perms_faults            0                       # Number of TLB faults due to permissions restrictions
system.cpu.dtb.stage2_mmu.stage2_tlb.prefetch_faults            0                       # Number of TLB faults due to prefetch
system.cpu.dtb.stage2_mmu.stage2_tlb.read_accesses            0                       # DTB read accesses
system.cpu.dtb.stage2_mmu.stage2_tlb.read_hits            0                       # DTB read hits
system.cpu.dtb.stage2_mmu.stage2_tlb.read_misses            0                       # DTB read misses
system.cpu.dtb.stage2_mmu.stage2_tlb.walker.walkRequestOrigin_Requested::Data            0                       # Table walker requests started/completed, data/inst
system.cpu.dtb.stage2_mmu.stage2_tlb.walker.walkRequestOrigin_Requested::Inst            0                       # Table walker requests started/completed, data/inst
system.cpu.dtb.stage2_mmu.stage2_tlb.walker.walkRequestOrigin_Requested::total            0                       # Table walker requests started/completed, data/inst
system.cpu.dtb.stage2_mmu.stage2_tlb.walker.walkRequestOrigin_Completed::Data            0                       # Table walker requests started/completed, data/inst
system.cpu.dtb.stage2_mmu.stage2_tlb.walker.walkRequestOrigin_Completed::Inst            0                       # Table walker requests started/completed, data/inst
system.cpu.dtb.stage2_mmu.stage2_tlb.walker.walkRequestOrigin_Completed::total            0                       # Table walker requests started/completed, data/inst
system.cpu.dtb.stage2_mmu.stage2_tlb.walker.walkRequestOrigin::total            0                       # Table walker requests started/completed, data/inst
system.cpu.dtb.stage2_mmu.stage2_tlb.walker.walks            0                       # Table walker walks requested
system.cpu.dtb.stage2_mmu.stage2_tlb.write_accesses            0                       # DTB write accesses
system.cpu.dtb.stage2_mmu.stage2_tlb.write_hits            0                       # DTB write hits
system.cpu.dtb.stage2_mmu.stage2_tlb.write_misses            0                       # DTB write misses
system.cpu.dtb.walker.walkRequestOrigin_Requested::Data            0                       # Table walker requests started/completed, data/inst
system.cpu.dtb.walker.walkRequestOrigin_Requested::Inst            0                       # Table walker requests started/completed, data/inst
system.cpu.dtb.walker.walkRequestOrigin_Requested::total            0                       # Table walker requests started/completed, data/inst
system.cpu.dtb.walker.walkRequestOrigin_Completed::Data            0                       # Table walker requests started/completed, data/inst
system.cpu.dtb.walker.walkRequestOrigin_Completed::Inst            0                       # Table walker requests started/completed, data/inst
system.cpu.dtb.walker.walkRequestOrigin_Completed::total            0                       # Table walker requests started/completed, data/inst
system.cpu.dtb.walker.walkRequestOrigin::total            0                       # Table walker requests started/completed, data/inst
system.cpu.dtb.walker.walks                         0                       # Table walker walks requested
system.cpu.dtb.write_accesses                       0                       # DTB write accesses
system.cpu.dtb.write_hits                           0                       # DTB write hits
system.cpu.dtb.write_misses                         0                       # DTB write misses
system.cpu.idle_fraction                     0.000000                       # Percentage of idle cycles
system.cpu.itb.accesses                             0                       # DTB accesses
system.cpu.itb.align_faults                         0                       # Number of TLB faults due to alignment restrictions
system.cpu.itb.domain_faults                        0                       # Number of TLB faults due to domain restrictions
system.cpu.itb.flush_entries                        0                       # Number of entries that have been flushed from TLB
system.cpu.itb.flush_tlb                            0                       # Number of times complete TLB was flushed
system.cpu.itb.flush_tlb_asid                       0                       # Number of times TLB was flushed by ASID
system.cpu.itb.flush_tlb_mva                        0                       # Number of times TLB was flushed by MVA
system.cpu.itb.flush_tlb_mva_asid                   0                       # Number of times TLB was flushed by MVA & ASID
system.cpu.itb.hits                                 0                       # DTB hits
system.cpu.itb.inst_accesses                        0                       # ITB inst accesses
system.cpu.itb.inst_hits                            0                       # ITB inst hits
system.cpu.itb.inst_misses                          0                       # ITB inst misses
system.cpu.itb.misses                               0                       # DTB misses
system.cpu.itb.perms_faults                         0                       # Number of TLB faults due to permissions restrictions
system.cpu.itb.prefetch_faults                      0                       # Number of TLB faults due to prefetch
system.cpu.itb.read_accesses                        0                       # DTB read accesses
system.cpu.itb.read_hits                            0                       # DTB read hits
system.cpu.itb.read_misses                          0                       # DTB read misses
system.cpu.itb.stage2_mmu.stage2_tlb.accesses            0                       # DTB accesses
system.cpu.itb.stage2_mmu.stage2_tlb.align_faults            0                       # Number of TLB faults due to alignment restrictions
system.cpu.itb.stage2_mmu.stage2_tlb.domain_faults            0                       # Number of TLB faults due to domain restrictions
system.cpu.itb.stage2_mmu.stage2_tlb.flush_entries            0                       # Number of entries that have been flushed from TLB
system.cpu.itb.stage2_mmu.stage2_tlb.flush_tlb            0                       # Number of times complete TLB was flushed
system.cpu.itb.stage2_mmu.stage2_tlb.flush_tlb_asid            0                       # Number of times TLB was flushed by ASID
system.cpu.itb.stage2_mmu.stage2_tlb.flush_tlb_mva            0                       # Number of times TLB was flushed by MVA
system.cpu.itb.stage2_mmu.stage2_tlb.flush_tlb_mva_asid            0                       # Number of times TLB was flushed by MVA & ASID
system.cpu.itb.stage2_mmu.stage2_tlb.hits            0                       # DTB hits
system.cpu.itb.stage2_mmu.stage2_tlb.inst_accesses            0                       # ITB inst accesses
system.cpu.itb.stage2_mmu.stage2_tlb.inst_hits            0                       # ITB inst hits
system.cpu.itb.stage2_mmu.stage2_tlb.inst_misses            0                       # ITB inst misses
system.cpu.itb.stage2_mmu.stage2_tlb.misses            0                       # DTB misses
system.cpu.itb.stage2_mmu.stage2_tlb.perms_faults            0                       # Number of TLB faults due to permissions restrictions
system.cpu.itb.stage2_mmu.stage2_tlb.prefetch_faults            0                       # Number of TLB faults due to prefetch
system.cpu.itb.stage2_mmu.stage2_tlb.read_accesses            0                       # DTB read accesses
system.cpu.itb.stage2_mmu.stage2_tlb.read_hits            0                       # DTB read hits
system.cpu.itb.stage2_mmu.stage2_tlb.read_misses            0                       # DTB read misses
system.cpu.itb.stage2_mmu.stage2_tlb.walker.walkRequestOrigin_Requested::Data            0                       # Table walker requests started/completed, data/inst
system.cpu.itb.stage2_mmu.stage2_tlb.walker.walkRequestOrigin_Requested::Inst            0                       # Table walker requests started/completed, data/inst
system.cpu.itb.stage2_mmu.stage2_tlb.walker.walkRequestOrigin_Requested::total            0                       # Table walker requests started/completed, data/inst
system.cpu.itb.stage2_mmu.stage2_tlb.walker.walkRequestOrigin_Completed::Data            0                       # Table walker requests started/completed, data/inst
system.cpu.itb.stage2_mmu.stage2_tlb.walker.walkRequestOrigin_Completed::Inst            0                       # Table walker requests started/completed, data/inst
system.cpu.itb.stage2_mmu.stage2_tlb.walker.walkRequestOrigin_Completed::total            0                       # Table walker requests started/completed, data/inst
system.cpu.itb.stage2_mmu.stage2_tlb.walker.walkRequestOrigin::total            0                       # Table walker requests started/completed, data/inst
system.cpu.itb.stage2_mmu.stage2_tlb.walker.walks            0                       # Table walker walks requested
system.cpu.itb.stage2_mmu.stage2_tlb.write_accesses            0                       # DTB write accesses
system.cpu.itb.stage2_mmu.stage2_tlb.write_hits            0                       # DTB write hits
system.cpu.itb.stage2_mmu.stage2_tlb.write_misses            0                       # DTB write misses
system.cpu.itb.walker.walkRequestOrigin_Requested::Data            0                       # Table walker requests started/completed, data/inst
system.cpu.itb.walker.walkRequestOrigin_Requested::Inst            0                       # Table walker requests started/completed, data/inst
system.cpu.itb.walker.walkRequestOrigin_Requested::total            0                       # Table walker requests started/completed, data/inst
system.cpu.itb.walker.walkRequestOrigin_Completed::Data            0                       # Table walker requests started/completed, data/inst
system.cpu.itb.walker.walkRequestOrigin_Completed::Inst            0                       # Table walker requests started/completed, data/inst
system.cpu.itb.walker.walkRequestOrigin_Completed::total            0                       # Table walker requests started/completed, data/inst
system.cpu.itb.walker.walkRequestOrigin::total            0                       # Table walker requests started/completed, data/inst
system.cpu.itb.walker.walks                         0                       # Table walker walks requested
system.cpu.itb.write_accesses                       0                       # DTB write accesses
system.cpu.itb.write_hits                           0                       # DTB write hits
system.cpu.itb.write_misses                         0                       # DTB write misses
system.cpu.not_idle_fraction                 1.000000                       # Percentage of non-idle cycles
system.cpu.numCycles                            92844                       # number of cpu cycles simulated
system.cpu.numWorkItemsCompleted                    0                       # number of work items this cpu completed
system.cpu.numWorkItemsStarted                      0                       # number of work items this cpu started
system.cpu.num_busy_cycles               92843.998000                       # Number of busy cycles
system.cpu.num_cc_register_reads                44826                       # number of times the CC registers were read
system.cpu.num_cc_register_writes                7327                       # number of times the CC registers were written
system.cpu.num_conditional_control_insts         1660                       # number of instructions that are conditional controls
system.cpu.num_fp_alu_accesses                      0                       # Number of float alu accesses
system.cpu.num_fp_insts                             0                       # number of float instructions
system.cpu.num_fp_register_reads                    0                       # number of times the floating registers were read
system.cpu.num_fp_register_writes                   0                       # number of times the floating registers were written
system.cpu.num_func_calls                         420                       # number of times a function call or return occured
system.cpu.num_idle_cycles                   0.002000                       # Number of idle cycles
system.cpu.num_int_alu_accesses                 11326                       # Number of integer alu accesses
system.cpu.num_int_insts                        11326                       # number of integer instructions
system.cpu.num_int_register_reads               18509                       # number of times the integer registers were read
system.cpu.num_int_register_writes               7843                       # number of times the integer registers were written
system.cpu.num_load_insts                        1984                       # Number of load instructions
system.cpu.num_mem_refs                          4017                       # number of memory refs
system.cpu.num_store_insts                       2033                       # Number of store instructions
system.cpu.num_vec_alu_accesses                     0                       # Number of vector alu accesses
system.cpu.num_vec_insts                            0                       # number of vector instructions
system.cpu.num_vec_register_reads                  42                       # number of times the vector registers were read
system.cpu.num_vec_register_writes                 15                       # number of times the vector registers were written
system.cpu.op_class::No_OpClass                     0      0.00%      0.00% # Class of executed instruction
system.cpu.op_class::IntAlu                      9043     68.72%     68.72% # Class of executed instruction
system.cpu.op_class::IntMult                       79      0.60%     69.32% # Class of executed instruction
system.cpu.op_class::IntDiv                         0      0.00%     69.32% # Class of executed instruction
system.cpu.op_class::FloatAdd                       0      0.00%     69.32% # Class of executed instruction
system.cpu.op_class::FloatCmp                       0      0.00%     69.32% # Class of executed instruction
system.cpu.op_class::FloatCvt                       0      0.00%     69.32% # Class of executed instruction
system.cpu.op_class::FloatMult                      0      0.00%     69.32% # Class of executed instruction
system.cpu.op_class::FloatMultAcc                   0      0.00%     69.32% # Class of executed instruction
system.cpu.op_class::FloatDiv                       0      0.00%     69.32% # Class of executed instruction
system.cpu.op_class::FloatMisc                      0      0.00%     69.32% # Class of executed instruction
system.cpu.op_class::FloatSqrt                      0      0.00%     69.32% # Class of executed instruction
system.cpu.op_class::SimdAdd                        0      0.00%     69.32% # Class of executed instruction
system.cpu.op_class::SimdAddAcc                     0      0.00%     69.32% # Class of executed instruction
system.cpu.op_class::SimdAlu                        0      0.00%     69.32% # Class of executed instruction
system.cpu.op_class::SimdCmp                        0      0.00%     69.32% # Class of executed instruction
system.cpu.op_class::SimdCvt                        0      0.00%     69.32% # Class of executed instruction
system.cpu.op_class::SimdMisc                       0      0.00%     69.32% # Class of executed instruction
system.cpu.op_class::SimdMult                       0      0.00%     69.32% # Class of executed instruction
system.cpu.op_class::SimdMultAcc                    0      0.00%     69.32% # Class of executed instruction
system.cpu.op_class::SimdShift                      0      0.00%     69.32% # Class of executed instruction
system.cpu.op_class::SimdShiftAcc                   0      0.00%     69.32% # Class of executed instruction
system.cpu.op_class::SimdDiv                        0      0.00%     69.32% # Class of executed instruction
system.cpu.op_class::SimdSqrt                       0      0.00%     69.32% # Class of executed instruction
system.cpu.op_class::SimdFloatAdd                   0      0.00%     69.32% # Class of executed instruction
system.cpu.op_class::SimdFloatAlu                   0      0.00%     69.32% # Class of executed instruction
system.cpu.op_class::SimdFloatCmp                   0      0.00%     69.32% # Class of executed instruction
system.cpu.op_class::SimdFloatCvt                   0      0.00%     69.32% # Class of executed instruction
system.cpu.op_class::SimdFloatDiv                   0      0.00%     69.32% # Class of executed instruction
system.cpu.op_class::SimdFloatMisc                 21      0.16%     69.48% # Class of executed instruction
system.cpu.op_class::SimdFloatMult                  0      0.00%     69.48% # Class of executed instruction
system.cpu.op_class::SimdFloatMultAcc               0      0.00%     69.48% # Class of executed instruction
system.cpu.op_class::SimdFloatSqrt                  0      0.00%     69.48% # Class of executed instruction
system.cpu.op_class::SimdReduceAdd                  0      0.00%     69.48% # Class of executed instruction
system.cpu.op_class::SimdReduceAlu                  0      0.00%     69.48% # Class of executed instruction
system.cpu.op_class::SimdReduceCmp                  0      0.00%     69.48% # Class of executed instruction
system.cpu.op_class::SimdFloatReduceAdd             0      0.00%     69.48% # Class of executed instruction
system.cpu.op_class::SimdFloatReduceCmp             0      0.00%     69.48% # Class of executed instruction
system.cpu.op_class::SimdAes                        0      0.00%     69.48% # Class of executed instruction
system.cpu.op_class::SimdAesMix                     0      0.00%     69.48% # Class of executed instruction
system.cpu.op_class::SimdSha1Hash                   0      0.00%     69.48% # Class of executed instruction
system.cpu.op_class::SimdSha1Hash2                  0      0.00%     69.48% # Class of executed instruction
system.cpu.op_class::SimdSha256Hash                 0      0.00%     69.48% # Class of executed instruction
system.cpu.op_class::SimdSha256Hash2                0      0.00%     69.48% # Class of executed instruction
system.cpu.op_class::SimdShaSigma2                  0      0.00%     69.48% # Class of executed instruction
system.cpu.op_class::SimdShaSigma3                  0      0.00%     69.48% # Class of executed instruction
system.cpu.op_class::SimdPredAlu                    0      0.00%     69.48% # Class of executed instruction
system.cpu.op_class::MemRead                     1984     15.08%     84.55% # Class of executed instruction
system.cpu.op_class::MemWrite                    2033     15.45%    100.00% # Class of executed instruction
system.cpu.op_class::FloatMemRead                   0      0.00%    100.00% # Class of executed instruction
system.cpu.op_class::FloatMemWrite                  0      0.00%    100.00% # Class of executed instruction
system.cpu.op_class::IprAccess                      0      0.00%    100.00% # Class of executed instruction
system.cpu.op_class::InstPrefetch                   0      0.00%    100.00% # Class of executed instruction
system.cpu.op_class::total                      13160                       # Class of executed instruction
system.cpu.workload.numSyscalls                    13                       # Number of system calls
system.membus.snoop_filter.hit_multi_requests            5                       # Number of requests hitting in the snoop filter with multiple (>1) holders of the requested data.
system.membus.snoop_filter.hit_multi_snoops            0                       # Number of snoops hitting in the snoop filter with multiple (>1) holders of the requested data.
system.membus.snoop_filter.hit_single_requests           58                       # Number of requests hitting in the snoop filter with a single holder of the requested data.
system.membus.snoop_filter.hit_single_snoops            0                       # Number of snoops hitting in the snoop filter with a single holder of the requested data.
system.membus.snoop_filter.tot_requests           554                       # Total number of requests made to the snoop filter.
system.membus.snoop_filter.tot_snoops               0                       # Total number of snoops made to the snoop filter.
system.membus.pwrStateResidencyTicks::UNDEFINED     46422000                       # Cumulative time (in ticks) in various power states
system.membus.trans_dist::ReadResp                433                       # Transaction distribution
system.membus.trans_dist::WritebackClean           44                       # Transaction distribution
system.membus.trans_dist::ReadExReq                77                       # Transaction distribution
system.membus.trans_dist::ReadExResp               77                       # Transaction distribution
system.membus.trans_dist::ReadCleanReq            325                       # Transaction distribution
system.membus.trans_dist::ReadSharedReq           108                       # Transaction distribution
system.membus.pkt_count_system.cpu.icache.mem_side::system.mem_ctrls.port          694                       # Packet count per connected master and slave (bytes)
system.membus.pkt_count_system.cpu.dcache.mem_side::system.mem_ctrls.port          370                       # Packet count per connected master and slave (bytes)
system.membus.pkt_count::total                   1064                       # Packet count per connected master and slave (bytes)
system.membus.pkt_size_system.cpu.icache.mem_side::system.mem_ctrls.port        23616                       # Cumulative packet size per connected master and slave (bytes)
system.membus.pkt_size_system.cpu.dcache.mem_side::system.mem_ctrls.port        11840                       # Cumulative packet size per connected master and slave (bytes)
system.membus.pkt_size::total                   35456                       # Cumulative packet size per connected master and slave (bytes)
system.membus.snoops                                0                       # Total snoops (count)
system.membus.snoopTraffic                          0                       # Total snoop traffic (bytes)
system.membus.snoop_fanout::samples               510                       # Request fanout histogram
system.membus.snoop_fanout::mean             0.037255                       # Request fanout histogram
system.membus.snoop_fanout::stdev            0.189572                       # Request fanout histogram
system.membus.snoop_fanout::underflows              0      0.00%      0.00% # Request fanout histogram
system.membus.snoop_fanout::0                     491     96.27%     96.27% # Request fanout histogram
system.membus.snoop_fanout::1                      19      3.73%    100.00% # Request fanout histogram
system.membus.snoop_fanout::2                       0      0.00%    100.00% # Request fanout histogram
system.membus.snoop_fanout::overflows               0      0.00%    100.00% # Request fanout histogram
system.membus.snoop_fanout::min_value               0                       # Request fanout histogram
system.membus.snoop_fanout::max_value               1                       # Request fanout histogram
system.membus.snoop_fanout::total                 510                       # Request fanout histogram
system.membus.reqLayer0.occupancy              737500                       # Layer occupancy (ticks)
system.membus.reqLayer0.utilization               1.6                       # Layer utilization (%)
system.membus.respLayer1.occupancy            1777244                       # Layer occupancy (ticks)
system.membus.respLayer1.utilization              3.8                       # Layer utilization (%)
system.membus.respLayer2.occupancy            1008872                       # Layer occupancy (ticks)
system.membus.respLayer2.utilization              2.2                       # Layer utilization (%)
system.voltage_domain.voltage                       1                       # Voltage in Volts
system.clk_domain.clock                          1000                       # Clock period in ticks
system.cpu_voltage_domain.voltage                   1                       # Voltage in Volts
system.mem_ctrls.pwrStateResidencyTicks::UNDEFINED     46422000                       # Cumulative time (in ticks) in various power states
system.mem_ctrls.bytes_read::.cpu.inst          20800                       # Number of bytes read from this memory
system.mem_ctrls.bytes_read::.cpu.data          11840                       # Number of bytes read from this memory
system.mem_ctrls.bytes_read::total              32640                       # Number of bytes read from this memory
system.mem_ctrls.bytes_inst_read::.cpu.inst        20800                       # Number of instructions bytes read from this memory
system.mem_ctrls.bytes_inst_read::total         20800                       # Number of instructions bytes read from this memory
system.mem_ctrls.num_reads::.cpu.inst             325                       # Number of read requests responded to by this memory
system.mem_ctrls.num_reads::.cpu.data             185                       # Number of read requests responded to by this memory
system.mem_ctrls.num_reads::total                 510                       # Number of read requests responded to by this memory
system.mem_ctrls.bw_read::.cpu.inst         448063418                       # Total read bandwidth from this memory (bytes/s)
system.mem_ctrls.bw_read::.cpu.data         255051484                       # Total read bandwidth from this memory (bytes/s)
system.mem_ctrls.bw_read::total             703114902                       # Total read bandwidth from this memory (bytes/s)
system.mem_ctrls.bw_inst_read::.cpu.inst    448063418                       # Instruction read bandwidth from this memory (bytes/s)
system.mem_ctrls.bw_inst_read::total        448063418                       # Instruction read bandwidth from this memory (bytes/s)
system.mem_ctrls.bw_total::.cpu.inst        448063418                       # Total bandwidth to/from this memory (bytes/s)
system.mem_ctrls.bw_total::.cpu.data        255051484                       # Total bandwidth to/from this memory (bytes/s)
system.mem_ctrls.bw_total::total            703114902                       # Total bandwidth to/from this memory (bytes/s)
system.mem_ctrls.avgPriority_.writebacks::samples        38.00                       # Average QoS priority value for accepted requests
system.mem_ctrls.avgPriority_.cpu.inst::samples       322.00                       # Average QoS priority value for accepted requests
system.mem_ctrls.avgPriority_.cpu.data::samples       185.00                       # Average QoS priority value for accepted requests
system.mem_ctrls.priorityMinLatency      0.000000017492                       # per QoS priority minimum request to response latency (s)
system.mem_ctrls.priorityMaxLatency      0.000000752692                       # per QoS priority maximum request to response latency (s)
system.mem_ctrls.numReadWriteTurnArounds            0                       # Number of turnarounds from READ to WRITE
system.mem_ctrls.numWriteReadTurnArounds            0                       # Number of turnarounds from WRITE to READ
system.mem_ctrls.numStayReadState                1063                       # Number of times bus staying in READ state
system.mem_ctrls.numStayWriteState                  0                       # Number of times bus staying in WRITE state
system.mem_ctrls.readReqs                         510                       # Number of read requests accepted
system.mem_ctrls.writeReqs                         39                       # Number of write requests accepted
system.mem_ctrls.readBursts                       510                       # Number of DRAM read bursts, including those serviced by the write queue
system.mem_ctrls.writeBursts                       39                       # Number of DRAM write bursts, including those merged in the write queue
system.mem_ctrls.servicedByWrQ                      3                       # Number of DRAM read bursts serviced by the write queue
system.mem_ctrls.mergedWrBursts                     1                       # Number of DRAM write bursts merged with an existing one
system.mem_ctrls.neitherReadNorWriteReqs            0                       # Number of requests that are neither read nor write
system.mem_ctrls.perBankRdBursts::0                39                       # Per bank write bursts
system.mem_ctrls.perBankRdBursts::1                11                       # Per bank write bursts
system.mem_ctrls.perBankRdBursts::2                62                       # Per bank write bursts
system.mem_ctrls.perBankRdBursts::3                 3                       # Per bank write bursts
system.mem_ctrls.perBankRdBursts::4                 1                       # Per bank write bursts
system.mem_ctrls.perBankRdBursts::5                28                       # Per bank write bursts
system.mem_ctrls.perBankRdBursts::6                 0                       # Per bank write bursts
system.mem_ctrls.perBankRdBursts::7                30                       # Per bank write bursts
system.mem_ctrls.perBankRdBursts::8                32                       # Per bank write bursts
system.mem_ctrls.perBankRdBursts::9                31                       # Per bank write bursts
system.mem_ctrls.perBankRdBursts::10               23                       # Per bank write bursts
system.mem_ctrls.perBankRdBursts::11               20                       # Per bank write bursts
system.mem_ctrls.perBankRdBursts::12               10                       # Per bank write bursts
system.mem_ctrls.perBankRdBursts::13               96                       # Per bank write bursts
system.mem_ctrls.perBankRdBursts::14               49                       # Per bank write bursts
system.mem_ctrls.perBankRdBursts::15               16                       # Per bank write bursts
system.mem_ctrls.perBankRdBursts::16                6                       # Per bank write bursts
system.mem_ctrls.perBankRdBursts::17                1                       # Per bank write bursts
system.mem_ctrls.perBankRdBursts::18                6                       # Per bank write bursts
system.mem_ctrls.perBankRdBursts::19                0                       # Per bank write bursts
system.mem_ctrls.perBankRdBursts::20                0                       # Per bank write bursts
system.mem_ctrls.perBankRdBursts::21                3                       # Per bank write bursts
system.mem_ctrls.perBankRdBursts::22                0                       # Per bank write bursts
system.mem_ctrls.perBankRdBursts::23                0                       # Per bank write bursts
system.mem_ctrls.perBankRdBursts::24                0                       # Per bank write bursts
system.mem_ctrls.perBankRdBursts::25                8                       # Per bank write bursts
system.mem_ctrls.perBankRdBursts::26                2                       # Per bank write bursts
system.mem_ctrls.perBankRdBursts::27                5                       # Per bank write bursts
system.mem_ctrls.perBankRdBursts::28               14                       # Per bank write bursts
system.mem_ctrls.perBankRdBursts::29                8                       # Per bank write bursts
system.mem_ctrls.perBankRdBursts::30                3                       # Per bank write bursts
system.mem_ctrls.perBankRdBursts::31                0                       # Per bank write bursts
system.mem_ctrls.perBankWrBursts::0                 0                       # Per bank write bursts
system.mem_ctrls.perBankWrBursts::1                 0                       # Per bank write bursts
system.mem_ctrls.perBankWrBursts::2                 0                       # Per bank write bursts
system.mem_ctrls.perBankWrBursts::3                 0                       # Per bank write bursts
system.mem_ctrls.perBankWrBursts::4                 0                       # Per bank write bursts
system.mem_ctrls.perBankWrBursts::5                 0                       # Per bank write bursts
system.mem_ctrls.perBankWrBursts::6                 0                       # Per bank write bursts
system.mem_ctrls.perBankWrBursts::7                 0                       # Per bank write bursts
system.mem_ctrls.perBankWrBursts::8                 0                       # Per bank write bursts
system.mem_ctrls.perBankWrBursts::9                 0                       # Per bank write bursts
system.mem_ctrls.perBankWrBursts::10                0                       # Per bank write bursts
system.mem_ctrls.perBankWrBursts::11                0                       # Per bank write bursts
system.mem_ctrls.perBankWrBursts::12                0                       # Per bank write bursts
system.mem_ctrls.perBankWrBursts::13                0                       # Per bank write bursts
system.mem_ctrls.perBankWrBursts::14                0                       # Per bank write bursts
system.mem_ctrls.perBankWrBursts::15                0                       # Per bank write bursts
system.mem_ctrls.perBankWrBursts::16                0                       # Per bank write bursts
system.mem_ctrls.perBankWrBursts::17                0                       # Per bank write bursts
system.mem_ctrls.perBankWrBursts::18                0                       # Per bank write bursts
system.mem_ctrls.perBankWrBursts::19                0                       # Per bank write bursts
system.mem_ctrls.perBankWrBursts::20                0                       # Per bank write bursts
system.mem_ctrls.perBankWrBursts::21                0                       # Per bank write bursts
system.mem_ctrls.perBankWrBursts::22                0                       # Per bank write bursts
system.mem_ctrls.perBankWrBursts::23                0                       # Per bank write bursts
system.mem_ctrls.perBankWrBursts::24                0                       # Per bank write bursts
system.mem_ctrls.perBankWrBursts::25                0                       # Per bank write bursts
system.mem_ctrls.perBankWrBursts::26                0                       # Per bank write bursts
system.mem_ctrls.perBankWrBursts::27                0                       # Per bank write bursts
system.mem_ctrls.perBankWrBursts::28                0                       # Per bank write bursts
system.mem_ctrls.perBankWrBursts::29                0                       # Per bank write bursts
system.mem_ctrls.perBankWrBursts::30                0                       # Per bank write bursts
system.mem_ctrls.perBankWrBursts::31                0                       # Per bank write bursts
system.mem_ctrls.avgRdQLen                       1.00                       # Average read queue length when enqueuing
system.mem_ctrls.avgWrQLen                       8.36                       # Average write queue length when enqueuing
system.mem_ctrls.totQLat                      3752092                       # Total ticks spent queuing
system.mem_ctrls.totBusLat                    1689324                       # Total ticks spent in databus transfers
system.mem_ctrls.totMemAccLat                12620536                       # Total ticks spent from burst creation until serviced by the DRAM
system.mem_ctrls.avgQLat                      7400.58                       # Average queueing delay per DRAM burst
system.mem_ctrls.avgBusLat                    3332.00                       # Average bus latency per DRAM burst
system.mem_ctrls.avgMemAccLat                24892.58                       # Average memory access latency per DRAM burst
system.mem_ctrls.numRdRetry                         0                       # Number of times read queue was full causing retry
system.mem_ctrls.numWrRetry                         0                       # Number of times write queue was full causing retry
system.mem_ctrls.readRowHits                      396                       # Number of row buffer hits during reads
system.mem_ctrls.writeRowHits                       0                       # Number of row buffer hits during writes
system.mem_ctrls.readRowHitRate                 78.11                       # Row buffer hit rate for reads
system.mem_ctrls.writeRowHitRate                 0.00                       # Row buffer hit rate for writes
system.mem_ctrls.readPktSize::0                     0                       # Read request sizes (log2)
system.mem_ctrls.readPktSize::1                     0                       # Read request sizes (log2)
system.mem_ctrls.readPktSize::2                     0                       # Read request sizes (log2)
system.mem_ctrls.readPktSize::3                     0                       # Read request sizes (log2)
system.mem_ctrls.readPktSize::4                     0                       # Read request sizes (log2)
system.mem_ctrls.readPktSize::5                     0                       # Read request sizes (log2)
system.mem_ctrls.readPktSize::6                   510                       # Read request sizes (log2)
system.mem_ctrls.writePktSize::0                    0                       # Write request sizes (log2)
system.mem_ctrls.writePktSize::1                    0                       # Write request sizes (log2)
system.mem_ctrls.writePktSize::2                    0                       # Write request sizes (log2)
system.mem_ctrls.writePktSize::3                    0                       # Write request sizes (log2)
system.mem_ctrls.writePktSize::4                    0                       # Write request sizes (log2)
system.mem_ctrls.writePktSize::5                    0                       # Write request sizes (log2)
system.mem_ctrls.writePktSize::6                   39                       # Write request sizes (log2)
system.mem_ctrls.rdQLenPdf::0                     505                       # What read queue length does an incoming req see
system.mem_ctrls.rdQLenPdf::1                       2                       # What read queue length does an incoming req see
system.mem_ctrls.rdQLenPdf::2                       0                       # What read queue length does an incoming req see
system.mem_ctrls.rdQLenPdf::3                       0                       # What read queue length does an incoming req see
system.mem_ctrls.rdQLenPdf::4                       0                       # What read queue length does an incoming req see
system.mem_ctrls.rdQLenPdf::5                       0                       # What read queue length does an incoming req see
system.mem_ctrls.rdQLenPdf::6                       0                       # What read queue length does an incoming req see
system.mem_ctrls.rdQLenPdf::7                       0                       # What read queue length does an incoming req see
system.mem_ctrls.rdQLenPdf::8                       0                       # What read queue length does an incoming req see
system.mem_ctrls.rdQLenPdf::9                       0                       # What read queue length does an incoming req see
system.mem_ctrls.rdQLenPdf::10                      0                       # What read queue length does an incoming req see
system.mem_ctrls.rdQLenPdf::11                      0                       # What read queue length does an incoming req see
system.mem_ctrls.rdQLenPdf::12                      0                       # What read queue length does an incoming req see
system.mem_ctrls.rdQLenPdf::13                      0                       # What read queue length does an incoming req see
system.mem_ctrls.rdQLenPdf::14                      0                       # What read queue length does an incoming req see
system.mem_ctrls.rdQLenPdf::15                      0                       # What read queue length does an incoming req see
system.mem_ctrls.rdQLenPdf::16                      0                       # What read queue length does an incoming req see
system.mem_ctrls.rdQLenPdf::17                      0                       # What read queue length does an incoming req see
system.mem_ctrls.rdQLenPdf::18                      0                       # What read queue length does an incoming req see
system.mem_ctrls.rdQLenPdf::19                      0                       # What read queue length does an incoming req see
system.mem_ctrls.rdQLenPdf::20                      0                       # What read queue length does an incoming req see
system.mem_ctrls.rdQLenPdf::21                      0                       # What read queue length does an incoming req see
system.mem_ctrls.rdQLenPdf::22                      0                       # What read queue length does an incoming req see
system.mem_ctrls.rdQLenPdf::23                      0                       # What read queue length does an incoming req see
system.mem_ctrls.rdQLenPdf::24                      0                       # What read queue length does an incoming req see
system.mem_ctrls.rdQLenPdf::25                      0                       # What read queue length does an incoming req see
system.mem_ctrls.rdQLenPdf::26                      0                       # What read queue length does an incoming req see
system.mem_ctrls.rdQLenPdf::27                      0                       # What read queue length does an incoming req see
system.mem_ctrls.rdQLenPdf::28                      0                       # What read queue length does an incoming req see
system.mem_ctrls.rdQLenPdf::29                      0                       # What read queue length does an incoming req see
system.mem_ctrls.rdQLenPdf::30                      0                       # What read queue length does an incoming req see
system.mem_ctrls.rdQLenPdf::31                      0                       # What read queue length does an incoming req see
system.mem_ctrls.rdQLenPdf::32                      0                       # What read queue length does an incoming req see
system.mem_ctrls.rdQLenPdf::33                      0                       # What read queue length does an incoming req see
system.mem_ctrls.rdQLenPdf::34                      0                       # What read queue length does an incoming req see
system.mem_ctrls.rdQLenPdf::35                      0                       # What read queue length does an incoming req see
system.mem_ctrls.rdQLenPdf::36                      0                       # What read queue length does an incoming req see
system.mem_ctrls.rdQLenPdf::37                      0                       # What read queue length does an incoming req see
system.mem_ctrls.rdQLenPdf::38                      0                       # What read queue length does an incoming req see
system.mem_ctrls.rdQLenPdf::39                      0                       # What read queue length does an incoming req see
system.mem_ctrls.rdQLenPdf::40                      0                       # What read queue length does an incoming req see
system.mem_ctrls.rdQLenPdf::41                      0                       # What read queue length does an incoming req see
system.mem_ctrls.rdQLenPdf::42                      0                       # What read queue length does an incoming req see
system.mem_ctrls.rdQLenPdf::43                      0                       # What read queue length does an incoming req see
system.mem_ctrls.rdQLenPdf::44                      0                       # What read queue length does an incoming req see
system.mem_ctrls.rdQLenPdf::45                      0                       # What read queue length does an incoming req see
system.mem_ctrls.rdQLenPdf::46                      0                       # What read queue length does an incoming req see
system.mem_ctrls.rdQLenPdf::47                      0                       # What read queue length does an incoming req see
system.mem_ctrls.rdQLenPdf::48                      0                       # What read queue length does an incoming req see
system.mem_ctrls.rdQLenPdf::49                      0                       # What read queue length does an incoming req see
system.mem_ctrls.rdQLenPdf::50                      0                       # What read queue length does an incoming req see
system.mem_ctrls.rdQLenPdf::51                      0                       # What read queue length does an incoming req see
system.mem_ctrls.rdQLenPdf::52                      0                       # What read queue length does an incoming req see
system.mem_ctrls.rdQLenPdf::53                      0                       # What read queue length does an incoming req see
system.mem_ctrls.rdQLenPdf::54                      0                       # What read queue length does an incoming req see
system.mem_ctrls.rdQLenPdf::55                      0                       # What read queue length does an incoming req see
system.mem_ctrls.rdQLenPdf::56                      0                       # What read queue length does an incoming req see
system.mem_ctrls.rdQLenPdf::57                      0                       # What read queue length does an incoming req see
system.mem_ctrls.rdQLenPdf::58                      0                       # What read queue length does an incoming req see
system.mem_ctrls.rdQLenPdf::59                      0                       # What read queue length does an incoming req see
system.mem_ctrls.rdQLenPdf::60                      0                       # What read queue length does an incoming req see
system.mem_ctrls.rdQLenPdf::61                      0                       # What read queue length does an incoming req see
system.mem_ctrls.rdQLenPdf::62                      0                       # What read queue length does an incoming req see
system.mem_ctrls.rdQLenPdf::63                      0                       # What read queue length does an incoming req see
system.mem_ctrls.wrQLenPdf::0                       1                       # What write queue length does an incoming req see
system.mem_ctrls.wrQLenPdf::1                       1                       # What write queue length does an incoming req see
system.mem_ctrls.wrQLenPdf::2                       1                       # What write queue length does an incoming req see
system.mem_ctrls.wrQLenPdf::3                       1                       # What write queue length does an incoming req see
system.mem_ctrls.wrQLenPdf::4                       1                       # What write queue length does an incoming req see
system.mem_ctrls.wrQLenPdf::5                       1                       # What write queue length does an incoming req see
system.mem_ctrls.wrQLenPdf::6                       1                       # What write queue length does an incoming req see
system.mem_ctrls.wrQLenPdf::7                       1                       # What write queue length does an incoming req see
system.mem_ctrls.wrQLenPdf::8                       1                       # What write queue length does an incoming req see
system.mem_ctrls.wrQLenPdf::9                       1                       # What write queue length does an incoming req see
system.mem_ctrls.wrQLenPdf::10                      1                       # What write queue length does an incoming req see
system.mem_ctrls.wrQLenPdf::11                      1                       # What write queue length does an incoming req see
system.mem_ctrls.wrQLenPdf::12                      1                       # What write queue length does an incoming req see
system.mem_ctrls.wrQLenPdf::13                      1                       # What write queue length does an incoming req see
system.mem_ctrls.wrQLenPdf::14                      1                       # What write queue length does an incoming req see
system.mem_ctrls.wrQLenPdf::15                      1                       # What write queue length does an incoming req see
system.mem_ctrls.wrQLenPdf::16                      1                       # What write queue length does an incoming req see
system.mem_ctrls.wrQLenPdf::17                      1                       # What write queue length does an incoming req see
system.mem_ctrls.wrQLenPdf::18                      1                       # What write queue length does an incoming req see
system.mem_ctrls.wrQLenPdf::19                      1                       # What write queue length does an incoming req see
system.mem_ctrls.wrQLenPdf::20                      1                       # What write queue length does an incoming req see
system.mem_ctrls.wrQLenPdf::21                      1                       # What write queue length does an incoming req see
system.mem_ctrls.wrQLenPdf::22                      1                       # What write queue length does an incoming req see
system.mem_ctrls.wrQLenPdf::23                      1                       # What write queue length does an incoming req see
system.mem_ctrls.wrQLenPdf::24                      1                       # What write queue length does an incoming req see
system.mem_ctrls.wrQLenPdf::25                      1                       # What write queue length does an incoming req see
system.mem_ctrls.wrQLenPdf::26                      1                       # What write queue length does an incoming req see
system.mem_ctrls.wrQLenPdf::27                      1                       # What write queue length does an incoming req see
system.mem_ctrls.wrQLenPdf::28                      1                       # What write queue length does an incoming req see
system.mem_ctrls.wrQLenPdf::29                      1                       # What write queue length does an incoming req see
system.mem_ctrls.wrQLenPdf::30                      1                       # What write queue length does an incoming req see
system.mem_ctrls.wrQLenPdf::31                      1                       # What write queue length does an incoming req see
system.mem_ctrls.wrQLenPdf::32                      1                       # What write queue length does an incoming req see
system.mem_ctrls.wrQLenPdf::33                      1                       # What write queue length does an incoming req see
system.mem_ctrls.wrQLenPdf::34                      1                       # What write queue length does an incoming req see
system.mem_ctrls.wrQLenPdf::35                      1                       # What write queue length does an incoming req see
system.mem_ctrls.wrQLenPdf::36                      1                       # What write queue length does an incoming req see
system.mem_ctrls.wrQLenPdf::37                      1                       # What write queue length does an incoming req see
system.mem_ctrls.wrQLenPdf::38                      0                       # What write queue length does an incoming req see
system.mem_ctrls.wrQLenPdf::39                      0                       # What write queue length does an incoming req see
system.mem_ctrls.wrQLenPdf::40                      0                       # What write queue length does an incoming req see
system.mem_ctrls.wrQLenPdf::41                      0                       # What write queue length does an incoming req see
system.mem_ctrls.wrQLenPdf::42                      0                       # What write queue length does an incoming req see
system.mem_ctrls.wrQLenPdf::43                      0                       # What write queue length does an incoming req see
system.mem_ctrls.wrQLenPdf::44                      0                       # What write queue length does an incoming req see
system.mem_ctrls.wrQLenPdf::45                      0                       # What write queue length does an incoming req see
system.mem_ctrls.wrQLenPdf::46                      0                       # What write queue length does an incoming req see
system.mem_ctrls.wrQLenPdf::47                      0                       # What write queue length does an incoming req see
system.mem_ctrls.wrQLenPdf::48                      0                       # What write queue length does an incoming req see
system.mem_ctrls.wrQLenPdf::49                      0                       # What write queue length does an incoming req see
system.mem_ctrls.wrQLenPdf::50                      0                       # What write queue length does an incoming req see
system.mem_ctrls.wrQLenPdf::51                      0                       # What write queue length does an incoming req see
system.mem_ctrls.wrQLenPdf::52                      0                       # What write queue length does an incoming req see
system.mem_ctrls.wrQLenPdf::53                      0                       # What write queue length does an incoming req see
system.mem_ctrls.wrQLenPdf::54                      0                       # What write queue length does an incoming req see
system.mem_ctrls.wrQLenPdf::55                      0                       # What write queue length does an incoming req see
system.mem_ctrls.wrQLenPdf::56                      0                       # What write queue length does an incoming req see
system.mem_ctrls.wrQLenPdf::57                      0                       # What write queue length does an incoming req see
system.mem_ctrls.wrQLenPdf::58                      0                       # What write queue length does an incoming req see
system.mem_ctrls.wrQLenPdf::59                      0                       # What write queue length does an incoming req see
system.mem_ctrls.wrQLenPdf::60                      0                       # What write queue length does an incoming req see
system.mem_ctrls.wrQLenPdf::61                      0                       # What write queue length does an incoming req see
system.mem_ctrls.wrQLenPdf::62                      0                       # What write queue length does an incoming req see
system.mem_ctrls.wrQLenPdf::63                      0                       # What write queue length does an incoming req see
system.mem_ctrls.wrQLenPdf::64                      0                       # What write queue length does an incoming req see
system.mem_ctrls.wrQLenPdf::65                      0                       # What write queue length does an incoming req see
system.mem_ctrls.wrQLenPdf::66                      0                       # What write queue length does an incoming req see
system.mem_ctrls.wrQLenPdf::67                      0                       # What write queue length does an incoming req see
system.mem_ctrls.wrQLenPdf::68                      0                       # What write queue length does an incoming req see
system.mem_ctrls.wrQLenPdf::69                      0                       # What write queue length does an incoming req see
system.mem_ctrls.wrQLenPdf::70                      0                       # What write queue length does an incoming req see
system.mem_ctrls.wrQLenPdf::71                      0                       # What write queue length does an incoming req see
system.mem_ctrls.wrQLenPdf::72                      0                       # What write queue length does an incoming req see
system.mem_ctrls.wrQLenPdf::73                      0                       # What write queue length does an incoming req see
system.mem_ctrls.wrQLenPdf::74                      0                       # What write queue length does an incoming req see
system.mem_ctrls.wrQLenPdf::75                      0                       # What write queue length does an incoming req see
system.mem_ctrls.wrQLenPdf::76                      0                       # What write queue length does an incoming req see
system.mem_ctrls.wrQLenPdf::77                      0                       # What write queue length does an incoming req see
system.mem_ctrls.wrQLenPdf::78                      0                       # What write queue length does an incoming req see
system.mem_ctrls.wrQLenPdf::79                      0                       # What write queue length does an incoming req see
system.mem_ctrls.wrQLenPdf::80                      0                       # What write queue length does an incoming req see
system.mem_ctrls.wrQLenPdf::81                      0                       # What write queue length does an incoming req see
system.mem_ctrls.wrQLenPdf::82                      0                       # What write queue length does an incoming req see
system.mem_ctrls.wrQLenPdf::83                      0                       # What write queue length does an incoming req see
system.mem_ctrls.wrQLenPdf::84                      0                       # What write queue length does an incoming req see
system.mem_ctrls.wrQLenPdf::85                      0                       # What write queue length does an incoming req see
system.mem_ctrls.wrQLenPdf::86                      0                       # What write queue length does an incoming req see
system.mem_ctrls.wrQLenPdf::87                      0                       # What write queue length does an incoming req see
system.mem_ctrls.wrQLenPdf::88                      0                       # What write queue length does an incoming req see
system.mem_ctrls.wrQLenPdf::89                      0                       # What write queue length does an incoming req see
system.mem_ctrls.wrQLenPdf::90                      0                       # What write queue length does an incoming req see
system.mem_ctrls.wrQLenPdf::91                      0                       # What write queue length does an incoming req see
system.mem_ctrls.wrQLenPdf::92                      0                       # What write queue length does an incoming req see
system.mem_ctrls.wrQLenPdf::93                      0                       # What write queue length does an incoming req see
system.mem_ctrls.wrQLenPdf::94                      0                       # What write queue length does an incoming req see
system.mem_ctrls.wrQLenPdf::95                      0                       # What write queue length does an incoming req see
system.mem_ctrls.wrQLenPdf::96                      0                       # What write queue length does an incoming req see
system.mem_ctrls.wrQLenPdf::97                      0                       # What write queue length does an incoming req see
system.mem_ctrls.wrQLenPdf::98                      0                       # What write queue length does an incoming req see
system.mem_ctrls.wrQLenPdf::99                      0                       # What write queue length does an incoming req see
system.mem_ctrls.wrQLenPdf::100                     0                       # What write queue length does an incoming req see
system.mem_ctrls.wrQLenPdf::101                     0                       # What write queue length does an incoming req see
system.mem_ctrls.wrQLenPdf::102                     0                       # What write queue length does an incoming req see
system.mem_ctrls.wrQLenPdf::103                     0                       # What write queue length does an incoming req see
system.mem_ctrls.wrQLenPdf::104                     0                       # What write queue length does an incoming req see
system.mem_ctrls.wrQLenPdf::105                     0                       # What write queue length does an incoming req see
system.mem_ctrls.wrQLenPdf::106                     0                       # What write queue length does an incoming req see
system.mem_ctrls.wrQLenPdf::107                     0                       # What write queue length does an incoming req see
system.mem_ctrls.wrQLenPdf::108                     0                       # What write queue length does an incoming req see
system.mem_ctrls.wrQLenPdf::109                     0                       # What write queue length does an incoming req see
system.mem_ctrls.wrQLenPdf::110                     0                       # What write queue length does an incoming req see
system.mem_ctrls.wrQLenPdf::111                     0                       # What write queue length does an incoming req see
system.mem_ctrls.wrQLenPdf::112                     0                       # What write queue length does an incoming req see
system.mem_ctrls.wrQLenPdf::113                     0                       # What write queue length does an incoming req see
system.mem_ctrls.wrQLenPdf::114                     0                       # What write queue length does an incoming req see
system.mem_ctrls.wrQLenPdf::115                     0                       # What write queue length does an incoming req see
system.mem_ctrls.wrQLenPdf::116                     0                       # What write queue length does an incoming req see
system.mem_ctrls.wrQLenPdf::117                     0                       # What write queue length does an incoming req see
system.mem_ctrls.wrQLenPdf::118                     0                       # What write queue length does an incoming req see
system.mem_ctrls.wrQLenPdf::119                     0                       # What write queue length does an incoming req see
system.mem_ctrls.wrQLenPdf::120                     0                       # What write queue length does an incoming req see
system.mem_ctrls.wrQLenPdf::121                     0                       # What write queue length does an incoming req see
system.mem_ctrls.wrQLenPdf::122                     0                       # What write queue length does an incoming req see
system.mem_ctrls.wrQLenPdf::123                     0                       # What write queue length does an incoming req see
system.mem_ctrls.wrQLenPdf::124                     0                       # What write queue length does an incoming req see
system.mem_ctrls.wrQLenPdf::125                     0                       # What write queue length does an incoming req see
system.mem_ctrls.wrQLenPdf::126                     0                       # What write queue length does an incoming req see
system.mem_ctrls.wrQLenPdf::127                     0                       # What write queue length does an incoming req see
system.mem_ctrls.bytesPerActivate::samples           99                       # Bytes accessed per row activation
system.mem_ctrls.bytesPerActivate::mean    304.484848                       # Bytes accessed per row activation
system.mem_ctrls.bytesPerActivate::gmean   187.912286                       # Bytes accessed per row activation
system.mem_ctrls.bytesPerActivate::stdev   318.703123                       # Bytes accessed per row activation
system.mem_ctrls.bytesPerActivate::0-127           32     32.32%     32.32% # Bytes accessed per row activation
system.mem_ctrls.bytesPerActivate::128-255           29     29.29%     61.62% # Bytes accessed per row activation
system.mem_ctrls.bytesPerActivate::256-383           13     13.13%     74.75% # Bytes accessed per row activation
system.mem_ctrls.bytesPerActivate::384-511            6      6.06%     80.81% # Bytes accessed per row activation
system.mem_ctrls.bytesPerActivate::512-639            1      1.01%     81.82% # Bytes accessed per row activation
system.mem_ctrls.bytesPerActivate::640-767            3      3.03%     84.85% # Bytes accessed per row activation
system.mem_ctrls.bytesPerActivate::768-895            2      2.02%     86.87% # Bytes accessed per row activation
system.mem_ctrls.bytesPerActivate::896-1023            4      4.04%     90.91% # Bytes accessed per row activation
system.mem_ctrls.bytesPerActivate::1024-1151            9      9.09%    100.00% # Bytes accessed per row activation
system.mem_ctrls.bytesPerActivate::total           99                       # Bytes accessed per row activation
system.mem_ctrls.bytesReadDRAM                  32448                       # Total number of bytes read from DRAM
system.mem_ctrls.bytesReadWrQ                     192                       # Total number of bytes read from write queue
system.mem_ctrls.bytesWritten                       0                       # Total number of bytes written to DRAM
system.mem_ctrls.bytesReadSys                   32640                       # Total read bytes from the system interface side
system.mem_ctrls.bytesWrittenSys                 2496                       # Total written bytes from the system interface side
system.mem_ctrls.avgRdBW                       698.98                       # Average DRAM read bandwidth in MiByte/s
system.mem_ctrls.avgWrBW                         0.00                       # Average achieved write bandwidth in MiByte/s
system.mem_ctrls.avgRdBWSys                    703.11                       # Average system read bandwidth in MiByte/s
system.mem_ctrls.avgWrBWSys                     53.77                       # Average system write bandwidth in MiByte/s
system.mem_ctrls.peakBW                      19207.00                       # Theoretical peak bandwidth in MiByte/s
system.mem_ctrls.busUtil                         3.64                       # Data bus utilization in percentage
system.mem_ctrls.busUtilRead                     3.64                       # Data bus utilization in percentage for reads
system.mem_ctrls.busUtilWrite                    0.00                       # Data bus utilization in percentage for writes
system.mem_ctrls.totGap                      46408000                       # Total gap between requests
system.mem_ctrls.avgGap                      84531.88                       # Average gap between requests
system.mem_ctrls.masterReadBytes::.cpu.inst        20608                       # Per-master bytes read from memory
system.mem_ctrls.masterReadBytes::.cpu.data        11840                       # Per-master bytes read from memory
system.mem_ctrls.masterReadRate::.cpu.inst 443927448.192667305470                       # Per-master bytes read from memory rate (Bytes/sec)
system.mem_ctrls.masterReadRate::.cpu.data 255051484.210072815418                       # Per-master bytes read from memory rate (Bytes/sec)
system.mem_ctrls.masterReadAccesses::.cpu.inst          325                       # Per-master read serviced memory accesses
system.mem_ctrls.masterReadAccesses::.cpu.data          185                       # Per-master read serviced memory accesses
system.mem_ctrls.masterWriteAccesses::.writebacks           39                       # Per-master write serviced memory accesses
system.mem_ctrls.masterReadTotalLat::.cpu.inst      7793756                       # Per-master read total memory access latency
system.mem_ctrls.masterReadTotalLat::.cpu.data      4826780                       # Per-master read total memory access latency
system.mem_ctrls.masterReadAvgLat::.cpu.inst     23980.79                       # Per-master read average memory access latency
system.mem_ctrls.masterReadAvgLat::.cpu.data     26090.70                       # Per-master read average memory access latency
system.mem_ctrls.masterWriteAvgLat::.writebacks         0.00                       # Per-master write average memory access latency
system.mem_ctrls.pageHitRate                    72.66                       # Row buffer hit rate, read and write combined
system.mem_ctrls.rank1.actEnergy         29628.144000                       # Energy for activate commands per rank (pJ)
system.mem_ctrls.rank1.preEnergy         46799.272800                       # Energy for precharge commands per rank (pJ)
system.mem_ctrls.rank1.readEnergy        153602.534400                       # Energy for read commands per rank (pJ)
system.mem_ctrls.rank1.writeEnergy                  0                       # Energy for write commands per rank (pJ)
system.mem_ctrls.rank1.refreshEnergy     3379277.748000                       # Energy for refresh commands per rank (pJ)
system.mem_ctrls.rank1.actBackEnergy     18112024.291200                       # Energy for active background per rank (pJ)
system.mem_ctrls.rank1.preBackEnergy     2648492.179200                       # Energy for precharge background per rank (pJ)
system.mem_ctrls.rank1.actPowerDownEnergy            0                       # Energy for active power-down per rank (pJ)
system.mem_ctrls.rank1.prePowerDownEnergy            0                       # Energy for precharge power-down per rank (pJ)
system.mem_ctrls.rank1.selfRefreshEnergy            0                       # Energy for self refresh per rank (pJ)
system.mem_ctrls.rank1.totalEnergy       24369824.169600                       # Total energy per rank (pJ)
system.mem_ctrls.rank1.averagePower        524.962823                       # Core power per rank (mW)
system.mem_ctrls.rank1.totalIdleTime                0                       # Total Idle time Per DRAM Rank
system.mem_ctrls.rank1.memoryStateTime::IDLE      7975100                       # Time in different power states
system.mem_ctrls.rank1.memoryStateTime::REF      1750000                       # Time in different power states
system.mem_ctrls.rank1.memoryStateTime::SREF            0                       # Time in different power states
system.mem_ctrls.rank1.memoryStateTime::PRE_PDN            0                       # Time in different power states
system.mem_ctrls.rank1.memoryStateTime::ACT     36696900                       # Time in different power states
system.mem_ctrls.rank1.memoryStateTime::ACT_PDN            0                       # Time in different power states
system.mem_ctrls.rank0.actEnergy         143462.592000                       # Energy for activate commands per rank (pJ)
system.mem_ctrls.rank0.preEnergy         225737.668800                       # Energy for precharge commands per rank (pJ)
system.mem_ctrls.rank0.readEnergy        1237048.982400                       # Energy for read commands per rank (pJ)
system.mem_ctrls.rank0.writeEnergy                  0                       # Energy for write commands per rank (pJ)
system.mem_ctrls.rank0.refreshEnergy     3379277.748000                       # Energy for refresh commands per rank (pJ)
system.mem_ctrls.rank0.actBackEnergy     21768457.132800                       # Energy for active background per rank (pJ)
system.mem_ctrls.rank0.preBackEnergy     124254.278400                       # Energy for precharge background per rank (pJ)
system.mem_ctrls.rank0.actPowerDownEnergy            0                       # Energy for active power-down per rank (pJ)
system.mem_ctrls.rank0.prePowerDownEnergy            0                       # Energy for precharge power-down per rank (pJ)
system.mem_ctrls.rank0.selfRefreshEnergy            0                       # Energy for self refresh per rank (pJ)
system.mem_ctrls.rank0.totalEnergy       26878238.402400                       # Total energy per rank (pJ)
system.mem_ctrls.rank0.averagePower        578.997855                       # Core power per rank (mW)
system.mem_ctrls.rank0.totalIdleTime                0                       # Total Idle time Per DRAM Rank
system.mem_ctrls.rank0.memoryStateTime::IDLE       213000                       # Time in different power states
system.mem_ctrls.rank0.memoryStateTime::REF      1750000                       # Time in different power states
system.mem_ctrls.rank0.memoryStateTime::SREF            0                       # Time in different power states
system.mem_ctrls.rank0.memoryStateTime::PRE_PDN            0                       # Time in different power states
system.mem_ctrls.rank0.memoryStateTime::ACT     44459000                       # Time in different power states
system.mem_ctrls.rank0.memoryStateTime::ACT_PDN            0                       # Time in different power states
system.cpu_clk_domain.clock                       500                       # Clock period in ticks
system.cpu.numPwrStateTransitions                   1                       # Number of power state transitions
system.cpu.pwrStateResidencyTicks::ON        46422000                       # Cumulative time (in ticks) in various power states
system.cpu.icache.pwrStateResidencyTicks::UNDEFINED     46422000                       # Cumulative time (in ticks) in various power states
system.cpu.icache.demand_hits::.cpu.inst        12853                       # number of demand (read+write) hits
system.cpu.icache.demand_hits::total            12853                       # number of demand (read+write) hits
system.cpu.icache.overall_hits::.cpu.inst        12853                       # number of overall hits
system.cpu.icache.overall_hits::total           12853                       # number of overall hits
system.cpu.icache.demand_misses::.cpu.inst          325                       # number of demand (read+write) misses
system.cpu.icache.demand_misses::total            325                       # number of demand (read+write) misses
system.cpu.icache.overall_misses::.cpu.inst          325                       # number of overall misses
system.cpu.icache.overall_misses::total           325                       # number of overall misses
system.cpu.icache.demand_miss_latency::.cpu.inst     18334000                       # number of demand (read+write) miss cycles
system.cpu.icache.demand_miss_latency::total     18334000                       # number of demand (read+write) miss cycles
system.cpu.icache.overall_miss_latency::.cpu.inst     18334000                       # number of overall miss cycles
system.cpu.icache.overall_miss_latency::total     18334000                       # number of overall miss cycles
system.cpu.icache.demand_accesses::.cpu.inst        13178                       # number of demand (read+write) accesses
system.cpu.icache.demand_accesses::total        13178                       # number of demand (read+write) accesses
system.cpu.icache.overall_accesses::.cpu.inst        13178                       # number of overall (read+write) accesses
system.cpu.icache.overall_accesses::total        13178                       # number of overall (read+write) accesses
system.cpu.icache.demand_miss_rate::.cpu.inst     0.024662                       # miss rate for demand accesses
system.cpu.icache.demand_miss_rate::total     0.024662                       # miss rate for demand accesses
system.cpu.icache.overall_miss_rate::.cpu.inst     0.024662                       # miss rate for overall accesses
system.cpu.icache.overall_miss_rate::total     0.024662                       # miss rate for overall accesses
system.cpu.icache.demand_avg_miss_latency::.cpu.inst 56412.307692                       # average overall miss latency
[...]
system.cpu.icache.ReadReq_miss_latency::total     18334000                       # number of ReadReq miss cycles
system.cpu.icache.ReadReq_accesses::.cpu.inst        13178                       # number of ReadReq accesses(hits+misses)
system.cpu.icache.ReadReq_accesses::total        13178                       # number of ReadReq accesses(hits+misses)
system.cpu.icache.ReadReq_miss_rate::.cpu.inst     0.024662                       # miss rate for ReadReq accesses
system.cpu.icache.ReadReq_miss_rate::total     0.024662                       # miss rate for ReadReq accesses
system.cpu.icache.ReadReq_avg_miss_latency::.cpu.inst 56412.307692                       # average ReadReq miss latency
system.cpu.icache.ReadReq_avg_miss_latency::total 56412.307692                       # average ReadReq miss latency
system.cpu.icache.ReadReq_mshr_misses::.cpu.inst          325                       # number of ReadReq MSHR misses
system.cpu.icache.ReadReq_mshr_misses::total          325                       # number of ReadReq MSHR misses
system.cpu.icache.ReadReq_mshr_miss_latency::.cpu.inst     18009000                       # number of ReadReq MSHR miss cycles
system.cpu.icache.ReadReq_mshr_miss_latency::total     18009000                       # number of ReadReq MSHR miss cycles
system.cpu.icache.ReadReq_mshr_miss_rate::.cpu.inst     0.024662                       # mshr miss rate for ReadReq accesses
system.cpu.icache.ReadReq_mshr_miss_rate::total     0.024662                       # mshr miss rate for ReadReq accesses
system.cpu.icache.ReadReq_avg_mshr_miss_latency::.cpu.inst 55412.307692                       # average ReadReq mshr miss latency
system.cpu.icache.ReadReq_avg_mshr_miss_latency::total 55412.307692                       # average ReadReq mshr miss latency
system.cpu.icache.tags.pwrStateResidencyTicks::UNDEFINED     46422000                       # Cumulative time (in ticks) in various power states
system.cpu.icache.tags.tagsinuse           149.607926                       # Cycle average of tags in use
system.cpu.icache.tags.total_refs               13178                       # Total number of references to valid blocks.
system.cpu.icache.tags.sampled_refs               325                       # Sample count of references to valid blocks.
system.cpu.icache.tags.avg_refs             40.547692                       # Average number of references to valid blocks.
system.cpu.icache.tags.warmup_cycle             76000                       # Cycle when the warmup percentage was hit.
system.cpu.icache.tags.occ_blocks::.cpu.inst   149.607926                       # Average occupied blocks per requestor
system.cpu.icache.tags.occ_percent::.cpu.inst     0.292203                       # Average percentage of cache occupancy
system.cpu.icache.tags.occ_percent::total     0.292203                       # Average percentage of cache occupancy
system.cpu.icache.tags.occ_task_id_blocks::1024          281                       # Occupied blocks per task id
system.cpu.icache.tags.age_task_id_blocks_1024::0           81                       # Occupied blocks per task id
system.cpu.icache.tags.age_task_id_blocks_1024::1          200                       # Occupied blocks per task id
system.cpu.icache.tags.occ_task_id_percent::1024     0.548828                       # Percentage of cache occupancy per task id
system.cpu.icache.tags.tag_accesses             26681                       # Number of tag accesses
system.cpu.icache.tags.data_accesses            26681                       # Number of data accesses
system.cpu.dtb.walker.pwrStateResidencyTicks::UNDEFINED     46422000                       # Cumulative time (in ticks) in various power states
system.cpu.dtb.stage2_mmu.stage2_tlb.walker.pwrStateResidencyTicks::UNDEFINED     46422000                       # Cumulative time (in ticks) in various power states
system.cpu.itb.walker.pwrStateResidencyTicks::UNDEFINED     46422000                       # Cumulative time (in ticks) in various power states
system.cpu.itb.stage2_mmu.stage2_tlb.walker.pwrStateResidencyTicks::UNDEFINED     46422000                       # Cumulative time (in ticks) in various power states
system.cpu.dcache.pwrStateResidencyTicks::UNDEFINED     46422000                       # Cumulative time (in ticks) in various power states
system.cpu.dcache.demand_hits::.cpu.data         3682                       # number of demand (read+write) hits
system.cpu.dcache.demand_hits::total             3682                       # number of demand (read+write) hits
system.cpu.dcache.overall_hits::.cpu.data         3703                       # number of overall hits
system.cpu.dcache.overall_hits::total            3703                       # number of overall hits
system.cpu.dcache.demand_misses::.cpu.data          181                       # number of demand (read+write) misses
system.cpu.dcache.demand_misses::total            181                       # number of demand (read+write) misses
system.cpu.dcache.overall_misses::.cpu.data          188                       # number of overall misses
system.cpu.dcache.overall_misses::total           188                       # number of overall misses
system.cpu.dcache.demand_miss_latency::.cpu.data     10593500                       # number of demand (read+write) miss cycles
system.cpu.dcache.demand_miss_latency::total     10593500                       # number of demand (read+write) miss cycles
system.cpu.dcache.overall_miss_latency::.cpu.data     10593500                       # number of overall miss cycles
system.cpu.dcache.overall_miss_latency::total     10593500                       # number of overall miss cycles
system.cpu.dcache.demand_accesses::.cpu.data         3863                       # number of demand (read+write) accesses
system.cpu.dcache.demand_accesses::total         3863                       # number of demand (read+write) accesses
system.cpu.dcache.overall_accesses::.cpu.data         3891                       # number of overall (read+write) accesses
system.cpu.dcache.overall_accesses::total         3891                       # number of overall (read+write) accesses
system.cpu.dcache.demand_miss_rate::.cpu.data     0.046855                       # miss rate for demand accesses
system.cpu.dcache.demand_miss_rate::total     0.046855                       # miss rate for demand accesses
system.cpu.dcache.overall_miss_rate::.cpu.data     0.048317                       # miss rate for overall accesses
system.cpu.dcache.overall_miss_rate::total     0.048317                       # miss rate for overall accesses
system.cpu.dcache.demand_avg_miss_latency::.cpu.data 58527.624309                       # average overall miss latency
system.cpu.dcache.demand_avg_miss_latency::total 58527.624309                       # average overall miss latency
system.cpu.dcache.overall_avg_miss_latency::.cpu.data 56348.404255                       # average overall miss latency
system.cpu.dcache.overall_avg_miss_latency::total 56348.404255                       # average overall miss latency
system.cpu.dcache.blocked_cycles::no_mshrs            0                       # number of cycles access was blocked
system.cpu.dcache.blocked_cycles::no_targets            0                       # number of cycles access was blocked
system.cpu.dcache.blocked::no_mshrs                 0                       # number of cycles access was blocked
system.cpu.dcache.blocked::no_targets               0                       # number of cycles access was blocked
system.cpu.dcache.avg_blocked_cycles::no_mshrs          nan                       # average number of cycles each access was blocked
system.cpu.dcache.avg_blocked_cycles::no_targets          nan                       # average number of cycles each access was blocked
system.cpu.dcache.demand_mshr_hits::.cpu.data            1                       # number of demand (read+write) MSHR hits
system.cpu.dcache.demand_mshr_hits::total            1                       # number of demand (read+write) MSHR hits
system.cpu.dcache.overall_mshr_hits::.cpu.data            1                       # number of overall MSHR hits
system.cpu.dcache.overall_mshr_hits::total            1                       # number of overall MSHR hits
system.cpu.dcache.demand_mshr_misses::.cpu.data          180                       # number of demand (read+write) MSHR misses
system.cpu.dcache.demand_mshr_misses::total          180                       # number of demand (read+write) MSHR misses
system.cpu.dcache.overall_mshr_misses::.cpu.data          185                       # number of overall MSHR misses
system.cpu.dcache.overall_mshr_misses::total          185                       # number of overall MSHR misses
system.cpu.dcache.demand_mshr_miss_latency::.cpu.data     10361500                       # number of demand (read+write) MSHR miss cycles
system.cpu.dcache.demand_mshr_miss_latency::total     10361500                       # number of demand (read+write) MSHR miss cycles
system.cpu.dcache.overall_mshr_miss_latency::.cpu.data     10662500                       # number of overall MSHR miss cycles
system.cpu.dcache.overall_mshr_miss_latency::total     10662500                       # number of overall MSHR miss cycles
system.cpu.dcache.demand_mshr_miss_rate::.cpu.data     0.046596                       # mshr miss rate for demand accesses
system.cpu.dcache.demand_mshr_miss_rate::total     0.046596                       # mshr miss rate for demand accesses
system.cpu.dcache.overall_mshr_miss_rate::.cpu.data     0.047546                       # mshr miss rate for overall accesses
system.cpu.dcache.overall_mshr_miss_rate::total     0.047546                       # mshr miss rate for overall accesses
system.cpu.dcache.demand_avg_mshr_miss_latency::.cpu.data 57563.888889                       # average overall mshr miss latency
system.cpu.dcache.demand_avg_mshr_miss_latency::total 57563.888889                       # average overall mshr miss latency
system.cpu.dcache.overall_avg_mshr_miss_latency::.cpu.data 57635.135135                       # average overall mshr miss latency
system.cpu.dcache.overall_avg_mshr_miss_latency::total 57635.135135                       # average overall mshr miss latency
system.cpu.dcache.replacements                      0                       # number of replacements
system.cpu.dcache.ReadReq_hits::.cpu.data         1789                       # number of ReadReq hits
system.cpu.dcache.ReadReq_hits::total            1789                       # number of ReadReq hits
system.cpu.dcache.ReadReq_misses::.cpu.data          104                       # number of ReadReq misses
system.cpu.dcache.ReadReq_misses::total           104                       # number of ReadReq misses
system.cpu.dcache.ReadReq_miss_latency::.cpu.data      6473500                       # number of ReadReq miss cycles
system.cpu.dcache.ReadReq_miss_latency::total      6473500                       # number of ReadReq miss cycles
system.cpu.dcache.ReadReq_accesses::.cpu.data         1893                       # number of ReadReq accesses(hits+misses)
system.cpu.dcache.ReadReq_accesses::total         1893                       # number of ReadReq accesses(hits+misses)
system.cpu.dcache.ReadReq_miss_rate::.cpu.data     0.054939                       # miss rate for ReadReq accesses
system.cpu.dcache.ReadReq_miss_rate::total     0.054939                       # miss rate for ReadReq accesses
system.cpu.dcache.ReadReq_avg_miss_latency::.cpu.data 62245.192308                       # average ReadReq miss latency
system.cpu.dcache.ReadReq_avg_miss_latency::total 62245.192308                       # average ReadReq miss latency
system.cpu.dcache.ReadReq_mshr_hits::.cpu.data            1                       # number of ReadReq MSHR hits
system.cpu.dcache.ReadReq_mshr_hits::total            1                       # number of ReadReq MSHR hits
system.cpu.dcache.ReadReq_mshr_misses::.cpu.data          103                       # number of ReadReq MSHR misses
system.cpu.dcache.ReadReq_mshr_misses::total          103                       # number of ReadReq MSHR misses
system.cpu.dcache.ReadReq_mshr_miss_latency::.cpu.data      6318500                       # number of ReadReq MSHR miss cycles
system.cpu.dcache.ReadReq_mshr_miss_latency::total      6318500                       # number of ReadReq MSHR miss cycles
system.cpu.dcache.ReadReq_mshr_miss_rate::.cpu.data     0.054411                       # mshr miss rate for ReadReq accesses
system.cpu.dcache.ReadReq_mshr_miss_rate::total     0.054411                       # mshr miss rate for ReadReq accesses
system.cpu.dcache.ReadReq_avg_mshr_miss_latency::.cpu.data 61344.660194                       # average ReadReq mshr miss latency
system.cpu.dcache.ReadReq_avg_mshr_miss_latency::total 61344.660194                       # average ReadReq mshr miss latency
system.cpu.dcache.WriteReq_hits::.cpu.data         1893                       # number of WriteReq hits
system.cpu.dcache.WriteReq_hits::total           1893                       # number of WriteReq hits
system.cpu.dcache.WriteReq_misses::.cpu.data           77                       # number of WriteReq misses
system.cpu.dcache.WriteReq_misses::total           77                       # number of WriteReq misses
system.cpu.dcache.WriteReq_miss_latency::.cpu.data      4120000                       # number of WriteReq miss cycles
system.cpu.dcache.WriteReq_miss_latency::total      4120000                       # number of WriteReq miss cycles
system.cpu.dcache.WriteReq_accesses::.cpu.data         1970                       # number of WriteReq accesses(hits+misses)
system.cpu.dcache.WriteReq_accesses::total         1970                       # number of WriteReq accesses(hits+misses)
system.cpu.dcache.WriteReq_miss_rate::.cpu.data     0.039086                       # miss rate for WriteReq accesses
system.cpu.dcache.WriteReq_miss_rate::total     0.039086                       # miss rate for WriteReq accesses
system.cpu.dcache.WriteReq_avg_miss_latency::.cpu.data 53506.493506                       # average WriteReq miss latency
system.cpu.dcache.WriteReq_avg_miss_latency::total 53506.493506                       # average WriteReq miss latency
system.cpu.dcache.WriteReq_mshr_misses::.cpu.data           77                       # number of WriteReq MSHR misses
system.cpu.dcache.WriteReq_mshr_misses::total           77                       # number of WriteReq MSHR misses
system.cpu.dcache.WriteReq_mshr_miss_latency::.cpu.data      4043000                       # number of WriteReq MSHR miss cycles
system.cpu.dcache.WriteReq_mshr_miss_latency::total      4043000                       # number of WriteReq MSHR miss cycles
system.cpu.dcache.WriteReq_mshr_miss_rate::.cpu.data     0.039086                       # mshr miss rate for WriteReq accesses
system.cpu.dcache.WriteReq_mshr_miss_rate::total     0.039086                       # mshr miss rate for WriteReq accesses
system.cpu.dcache.WriteReq_avg_mshr_miss_latency::.cpu.data 52506.493506                       # average WriteReq mshr miss latency
system.cpu.dcache.WriteReq_avg_mshr_miss_latency::total 52506.493506                       # average WriteReq mshr miss latency
system.cpu.dcache.SoftPFReq_hits::.cpu.data           21                       # number of SoftPFReq hits
system.cpu.dcache.SoftPFReq_hits::total            21                       # number of SoftPFReq hits
system.cpu.dcache.SoftPFReq_misses::.cpu.data            7                       # number of SoftPFReq misses
system.cpu.dcache.SoftPFReq_misses::total            7                       # number of SoftPFReq misses
system.cpu.dcache.SoftPFReq_accesses::.cpu.data           28                       # number of SoftPFReq accesses(hits+misses)
system.cpu.dcache.SoftPFReq_accesses::total           28                       # number of SoftPFReq accesses(hits+misses)
system.cpu.dcache.SoftPFReq_miss_rate::.cpu.data     0.250000                       # miss rate for SoftPFReq accesses
system.cpu.dcache.SoftPFReq_miss_rate::total     0.250000                       # miss rate for SoftPFReq accesses
system.cpu.dcache.SoftPFReq_mshr_misses::.cpu.data            5                       # number of SoftPFReq MSHR misses
system.cpu.dcache.SoftPFReq_mshr_misses::total            5                       # number of SoftPFReq MSHR misses
system.cpu.dcache.SoftPFReq_mshr_miss_latency::.cpu.data       301000                       # number of SoftPFReq MSHR miss cycles
system.cpu.dcache.SoftPFReq_mshr_miss_latency::total       301000                       # number of SoftPFReq MSHR miss cycles
system.cpu.dcache.SoftPFReq_mshr_miss_rate::.cpu.data     0.178571                       # mshr miss rate for SoftPFReq accesses
system.cpu.dcache.SoftPFReq_mshr_miss_rate::total     0.178571                       # mshr miss rate for SoftPFReq accesses
system.cpu.dcache.SoftPFReq_avg_mshr_miss_latency::.cpu.data        60200                       # average SoftPFReq mshr miss latency
system.cpu.dcache.SoftPFReq_avg_mshr_miss_latency::total        60200                       # average SoftPFReq mshr miss latency
system.cpu.dcache.LoadLockedReq_hits::.cpu.data           26                       # number of LoadLockedReq hits
system.cpu.dcache.LoadLockedReq_hits::total           26                       # number of LoadLockedReq hits
system.cpu.dcache.LoadLockedReq_accesses::.cpu.data           26                       # number of LoadLockedReq accesses(hits+misses)
system.cpu.dcache.LoadLockedReq_accesses::total           26                       # number of LoadLockedReq accesses(hits+misses)
system.cpu.dcache.StoreCondReq_hits::.cpu.data           26                       # number of StoreCondReq hits
system.cpu.dcache.StoreCondReq_hits::total           26                       # number of StoreCondReq hits
system.cpu.dcache.StoreCondReq_accesses::.cpu.data           26                       # number of StoreCondReq accesses(hits+misses)
system.cpu.dcache.StoreCondReq_accesses::total           26                       # number of StoreCondReq accesses(hits+misses)
system.cpu.dcache.tags.pwrStateResidencyTicks::UNDEFINED     46422000                       # Cumulative time (in ticks) in various power states
system.cpu.dcache.tags.tagsinuse           110.654260                       # Cycle average of tags in use
system.cpu.dcache.tags.total_refs                3940                       # Total number of references to valid blocks.
system.cpu.dcache.tags.sampled_refs               185                       # Sample count of references to valid blocks.
system.cpu.dcache.tags.avg_refs             21.297297                       # Average number of references to valid blocks.
system.cpu.dcache.tags.warmup_cycle            146000                       # Cycle when the warmup percentage was hit.
system.cpu.dcache.tags.occ_blocks::.cpu.data   110.654260                       # Average occupied blocks per requestor
system.cpu.dcache.tags.occ_percent::.cpu.data     0.108061                       # Average percentage of cache occupancy
system.cpu.dcache.tags.occ_percent::total     0.108061                       # Average percentage of cache occupancy
system.cpu.dcache.tags.occ_task_id_blocks::1024          185                       # Occupied blocks per task id
system.cpu.dcache.tags.age_task_id_blocks_1024::0           19                       # Occupied blocks per task id
system.cpu.dcache.tags.age_task_id_blocks_1024::1          166                       # Occupied blocks per task id
system.cpu.dcache.tags.occ_task_id_percent::1024     0.180664                       # Percentage of cache occupancy per task id
system.cpu.dcache.tags.tag_accesses              8071                       # Number of tag accesses
system.cpu.dcache.tags.data_accesses             8071                       # Number of data accesses

---------- End Simulation Statistics   ----------
