---------- Begin Simulation Statistics ----------
final_tick                                   43126000                       # Number of ticks from beginning of simulation (restored from checkpoints and never reset)
host_inst_rate                                 140986                       # Simulator instruction rate (inst/s)
host_mem_usage                                 664340                       # Number of bytes of host memory used
host_op_rate                                   162332                       # Simulator op (including micro ops) rate (op/s)
host_seconds                                     0.08                       # Real time elapsed on the host
host_tick_rate                              574192307                       # Simulator tick rate (ticks/s)
sim_freq                                 1000000000000                       # Frequency of simulated ticks
sim_insts                                       10572                       # Number of instructions simulated
sim_ops                                         12190                       # Number of ops (including micro ops) simulated
sim_seconds                                  0.000043                       # Number of seconds simulated
sim_ticks                                    43126000                       # Number of ticks simulated
system.cpu.committedInsts                       10572                       # Number of instructions committed
system.cpu.committedOps                         12190                       # Number of ops (including micro ops) committed
system.cpu.cpi                               8.158532                       # CPI: cycles per instruction
system.cpu.discardedOps                          2018                       # Number of ops (including micro ops) which were discarded before commit
system.cpu.idleCycles                           65839                       # Total number of cycles that the object has spent stopped
system.cpu.ipc                               0.122571                       # IPC: instructions per cycle
system.cpu.numCycles                            86252                       # number of cpu cycles simulated
system.cpu.numFetchSuspends                         0                       # Number of times Execute suspended instruction fetching
system.cpu.numWorkItemsCompleted                    0                       # number of work items this cpu completed
system.cpu.numWorkItemsStarted                      0                       # number of work items this cpu started
system.cpu.op_class_0::No_OpClass                   0      0.00%      0.00% # Class of committed instruction
system.cpu.op_class_0::IntAlu                    8391     68.84%     68.84% # Class of committed instruction
system.cpu.op_class_0::IntMult                     62      0.51%     69.34% # Class of committed instruction
system.cpu.op_class_0::IntDiv                       0      0.00%     69.34% # Class of committed instruction
system.cpu.op_class_0::FloatAdd                     0      0.00%     69.34% # Class of committed instruction
system.cpu.op_class_0::FloatCmp                     0      0.00%     69.34% # Class of committed instruction
system.cpu.op_class_0::FloatCvt                     0      0.00%     69.34% # Class of committed instruction
system.cpu.op_class_0::FloatMult                    0      0.00%     69.34% # Class of committed instruction
system.cpu.op_class_0::FloatMultAcc                 0      0.00%     69.34% # Class of committed instruction
system.cpu.op_class_0::FloatDiv                     0      0.00%     69.34% # Class of committed instruction
system.cpu.op_class_0::FloatMisc                    0      0.00%     69.34% # Class of committed instruction
system.cpu.op_class_0::FloatSqrt                    0      0.00%     69.34% # Class of committed instruction
system.cpu.op_class_0::SimdAdd                      0      0.00%     69.34% # Class of committed instruction
system.cpu.op_class_0::SimdAddAcc                   0      0.00%     69.34% # Class of committed instruction
system.cpu.op_class_0::SimdAlu                      0      0.00%     69.34% # Class of committed instruction
system.cpu.op_class_0::SimdCmp                      0      0.00%     69.34% # Class of committed instruction
system.cpu.op_class_0::SimdCvt                      0      0.00%     69.34% # Class of committed instruction
system.cpu.op_class_0::SimdMisc                     0      0.00%     69.34% # Class of committed instruction
system.cpu.op_class_0::SimdMult                     0      0.00%     69.34% # Class of committed instruction
system.cpu.op_class_0::SimdMultAcc                  0      0.00%     69.34% # Class of committed instruction
system.cpu.op_class_0::SimdShift                    0      0.00%     69.34% # Class of committed instruction
system.cpu.op_class_0::SimdShiftAcc                 0      0.00%     69.34% # Class of committed instruction
system.cpu.op_class_0::SimdDiv                      0      0.00%     69.34% # Class of committed instruction
system.cpu.op_class_0::SimdSqrt                     0      0.00%     69.34% # Class of committed instruction
system.cpu.op_class_0::SimdFloatAdd                 0      0.00%     69.34% # Class of committed instruction
system.cpu.op_class_0::SimdFloatAlu                 0      0.00%     69.34% # Class of committed instruction
system.cpu.op_class_0::SimdFloatCmp                 0      0.00%     69.34% # Class of committed instruction
system.cpu.op_class_0::SimdFloatCvt                 0      0.00%     69.34% # Class of committed instruction
system.cpu.op_class_0::SimdFloatDiv                 0      0.00%     69.34% # Class of committed instruction
system.cpu.op_class_0::SimdFloatMisc               21      0.17%     69.52% # Class of committed instruction
system.cpu.op_class_0::SimdFloatMult                0      0.00%     69.52% # Class of committed instruction
system.cpu.op_class_0::SimdFloatMultAcc             0      0.00%     69.52% # Class of committed instruction
system.cpu.op_class_0::SimdFloatSqrt                0      0.00%     69.52% # Class of committed instruction
system.cpu.op_class_0::SimdReduceAdd                0      0.00%     69.52% # Class of committed instruction
system.cpu.op_class_0::SimdReduceAlu                0      0.00%     69.52% # Class of committed instruction
system.cpu.op_class_0::SimdReduceCmp                0      0.00%     69.52% # Class of committed instruction
system.cpu.op_class_0::SimdFloatReduceAdd            0      0.00%     69.52% # Class of committed instruction
system.cpu.op_class_0::SimdFloatReduceCmp            0      0.00%     69.52% # Class of committed instruction
system.cpu.op_class_0::SimdAes                      0      0.00%     69.52% # Class of committed instruction
system.cpu.op_class_0::SimdAesMix                   0      0.00%     69.52% # Class of committed instruction
system.cpu.op_class_0::SimdSha1Hash                 0      0.00%     69.52% # Class of committed instruction
system.cpu.op_class_0::SimdSha1Hash2                0      0.00%     69.52% # Class of committed instruction
system.cpu.op_class_0::SimdSha256Hash               0      0.00%     69.52% # Class of committed instruction
system.cpu.op_class_0::SimdSha256Hash2              0      0.00%     69.52% # Class of committed instruction
system.cpu.op_class_0::SimdShaSigma2                0      0.00%     69.52% # Class of committed instruction
system.cpu.op_class_0::SimdShaSigma3                0      0.00%     69.52% # Class of committed instruction
system.cpu.op_class_0::SimdPredAlu                  0      0.00%     69.52% # Class of committed instruction
system.cpu.op_class_0::MemRead                   1774     14.55%     84.07% # Class of committed instruction
system.cpu.op_class_0::MemWrite                  1942     15.93%    100.00% # Class of committed instruction
system.cpu.op_class_0::FloatMemRead                 0      0.00%    100.00% # Class of committed instruction
system.cpu.op_class_0::FloatMemWrite                0      0.00%    100.00% # Class of committed instruction
system.cpu.op_class_0::IprAccess                    0      0.00%    100.00% # Class of committed instruction
system.cpu.op_class_0::InstPrefetch                 0      0.00%    100.00% # Class of committed instruction
system.cpu.op_class_0::total                    12190                       # Class of committed instruction
system.cpu.tickCycles                           20413                       # Number of cycles that the object actually ticked
system.cpu.workload.numSyscalls                    11                       # Number of system calls
system.membus.snoop_filter.hit_multi_requests            6                       # Number of requests hitting in the snoop filter with multiple (>1) holders of the requested data.
system.membus.snoop_filter.hit_multi_snoops            0                       # Number of snoops hitting in the snoop filter with multiple (>1) holders of the requested data.
system.membus.snoop_filter.hit_single_requests          140                       # Number of requests hitting in the snoop filter with a single holder of the requested data.
system.membus.snoop_filter.hit_single_snoops            0                       # Number of snoops hitting in the snoop filter with a single holder of the requested data.
system.membus.snoop_filter.tot_requests           741                       # Total number of requests made to the snoop filter.
system.membus.snoop_filter.tot_snoops               0                       # Total number of snoops made to the snoop filter.
system.clk_domain.clock                          2000                       # Clock period in ticks
system.cpu.branchPred.lookups                    3550                       # Number of BP lookups
system.cpu.branchPred.condPredicted              2323                       # Number of conditional branches predicted
system.cpu.branchPred.condIncorrect               617                       # Number of conditional branches incorrect
system.cpu.branchPred.BTBLookups                 1632                       # Number of BTB lookups
system.cpu.branchPred.BTBHits                     737                       # Number of BTB hits
system.cpu.branchPred.BTBHitPct             45.159314                       # BTB Hit Percentage
system.cpu.branchPred.RASUsed                     296                       # Number of times the RAS was used to get a target.
system.cpu.branchPred.RASIncorrect                  1                       # Number of incorrect RAS predictions.
system.cpu.branchPred.indirectLookups             190                       # Number of indirect predictor lookups.
system.cpu.branchPred.indirectHits                 33                       # Number of indirect target hits.
system.cpu.branchPred.indirectMisses              157                       # Number of indirect misses.
system.cpu.branchPred.indirectMispredicted           69                       # Number of mispredicted indirect branches.
system.cpu.dcache.demand_hits::.cpu.data         3621                       # number of demand (read+write) hits
system.cpu.dcache.demand_hits::total             3621                       # number of demand (read+write) hits
system.cpu.dcache.overall_hits::.cpu.data         3639                       # number of overall hits
system.cpu.dcache.overall_hits::total            3639                       # number of overall hits
system.cpu.dcache.demand_misses::.cpu.data          221                       # number of demand (read+write) misses
system.cpu.dcache.demand_misses::total            221                       # number of demand (read+write) misses
system.cpu.dcache.overall_misses::.cpu.data          231                       # number of overall misses
system.cpu.dcache.overall_misses::total           231                       # number of overall misses
system.cpu.dcache.demand_miss_latency::.cpu.data     16182500                       # number of demand (read+write) miss cycles
system.cpu.dcache.demand_miss_latency::total     16182500                       # number of demand (read+write) miss cycles
system.cpu.dcache.overall_miss_latency::.cpu.data     16182500                       # number of overall miss cycles
system.cpu.dcache.overall_miss_latency::total     16182500                       # number of overall miss cycles
system.cpu.dcache.demand_accesses::.cpu.data         3842                       # number of demand (read+write) accesses
system.cpu.dcache.demand_accesses::total         3842                       # number of demand (read+write) accesses
system.cpu.dcache.overall_accesses::.cpu.data         3870                       # number of overall (read+write) accesses
system.cpu.dcache.overall_accesses::total         3870                       # number of overall (read+write) accesses
system.cpu.dcache.demand_miss_rate::.cpu.data     0.057522                       # miss rate for demand accesses
system.cpu.dcache.demand_miss_rate::total     0.057522                       # miss rate for demand accesses
system.cpu.dcache.overall_miss_rate::.cpu.data     0.059690                       # miss rate for overall accesses
system.cpu.dcache.overall_miss_rate::total     0.059690                       # miss rate for overall accesses
system.cpu.dcache.demand_avg_miss_latency::.cpu.data 73223.981900                       # average overall miss latency
system.cpu.dcache.demand_avg_miss_latency::total 73223.981900                       # average overall miss latency
system.cpu.dcache.overall_avg_miss_latency::.cpu.data 70054.112554                       # average overall miss latency
system.cpu.dcache.overall_avg_miss_latency::total 70054.112554                       # average overall miss latency
system.cpu.dcache.blocked_cycles::no_mshrs            0                       # number of cycles access was blocked
system.cpu.dcache.blocked_cycles::no_targets            0                       # number of cycles access was blocked
system.cpu.dcache.blocked::no_mshrs                 0                       # number of cycles access was blocked
system.cpu.dcache.blocked::no_targets               0                       # number of cycles access was blocked
system.cpu.dcache.avg_blocked_cycles::no_mshrs          nan                       # average number of cycles each access was blocked
system.cpu.dcache.avg_blocked_cycles::no_targets          nan                       # average number of cycles each access was blocked
system.cpu.dcache.demand_mshr_hits::.cpu.data           50                       # number of demand (read+write) MSHR hits
system.cpu.dcache.demand_mshr_hits::total           50                       # number of demand (read+write) MSHR hits
system.cpu.dcache.overall_mshr_hits::.cpu.data           50                       # number of overall MSHR hits
system.cpu.dcache.overall_mshr_hits::total           50                       # number of overall MSHR hits
system.cpu.dcache.demand_mshr_misses::.cpu.data          171                       # number of demand (read+write) MSHR misses
system.cpu.dcache.demand_mshr_misses::total          171                       # number of demand (read+write) MSHR misses
system.cpu.dcache.overall_mshr_misses::.cpu.data          178                       # number of overall MSHR misses
system.cpu.dcache.overall_mshr_misses::total          178                       # number of overall MSHR misses
system.cpu.dcache.demand_mshr_miss_latency::.cpu.data     12347500                       # number of demand (read+write) MSHR miss cycles
system.cpu.dcache.demand_mshr_miss_latency::total     12347500                       # number of demand (read+write) MSHR miss cycles
system.cpu.dcache.overall_mshr_miss_latency::.cpu.data     12816000                       # number of overall MSHR miss cycles
system.cpu.dcache.overall_mshr_miss_latency::total     12816000                       # number of overall MSHR miss cycles
system.cpu.dcache.demand_mshr_miss_rate::.cpu.data     0.044508                       # mshr miss rate for demand accesses
system.cpu.dcache.demand_mshr_miss_rate::total     0.044508                       # mshr miss rate for demand accesses
system.cpu.dcache.overall_mshr_miss_rate::.cpu.data     0.045995                       # mshr miss rate for overall accesses
system.cpu.dcache.overall_mshr_miss_rate::total     0.045995                       # mshr miss rate for overall accesses
system.cpu.dcache.demand_avg_mshr_miss_latency::.cpu.data 72207.602339                       # average overall mshr miss latency
system.cpu.dcache.demand_avg_mshr_miss_latency::total 72207.602339                       # average overall mshr miss latency
system.cpu.dcache.overall_avg_mshr_miss_latency::.cpu.data        72000                       # average overall mshr miss latency
system.cpu.dcache.overall_avg_mshr_miss_latency::total        72000                       # average overall mshr miss latency
system.cpu.dcache.replacements                      0                       # number of replacements
system.cpu.dcache.ReadReq_hits::.cpu.data         1874                       # number of ReadReq hits
system.cpu.dcache.ReadReq_hits::total            1874                       # number of ReadReq hits
system.cpu.dcache.ReadReq_misses::.cpu.data          106                       # number of ReadReq misses
system.cpu.dcache.ReadReq_misses::total           106                       # number of ReadReq misses
system.cpu.dcache.ReadReq_miss_latency::.cpu.data      7960500                       # number of ReadReq miss cycles
system.cpu.dcache.ReadReq_miss_latency::total      7960500                       # number of ReadReq miss cycles
system.cpu.dcache.ReadReq_accesses::.cpu.data         1980                       # number of ReadReq accesses(hits+misses)
system.cpu.dcache.ReadReq_accesses::total         1980                       # number of ReadReq accesses(hits+misses)
system.cpu.dcache.ReadReq_miss_rate::.cpu.data     0.053535                       # miss rate for ReadReq accesses
system.cpu.dcache.ReadReq_miss_rate::total     0.053535                       # miss rate for ReadReq accesses
system.cpu.dcache.ReadReq_avg_miss_latency::.cpu.data 75099.056604                       # average ReadReq miss latency
system.cpu.dcache.ReadReq_avg_miss_latency::total 75099.056604                       # average ReadReq miss latency
system.cpu.dcache.ReadReq_mshr_hits::.cpu.data            5                       # number of ReadReq MSHR hits
system.cpu.dcache.ReadReq_mshr_hits::total            5                       # number of ReadReq MSHR hits
system.cpu.dcache.ReadReq_mshr_misses::.cpu.data          101                       # number of ReadReq MSHR misses
system.cpu.dcache.ReadReq_mshr_misses::total          101                       # number of ReadReq MSHR misses
system.cpu.dcache.ReadReq_mshr_miss_latency::.cpu.data      7510000                       # number of ReadReq MSHR miss cycles
system.cpu.dcache.ReadReq_mshr_miss_latency::total      7510000                       # number of ReadReq MSHR miss cycles
system.cpu.dcache.ReadReq_mshr_miss_rate::.cpu.data     0.051010                       # mshr miss rate for ReadReq accesses
system.cpu.dcache.ReadReq_mshr_miss_rate::total     0.051010                       # mshr miss rate for ReadReq accesses
system.cpu.dcache.ReadReq_avg_mshr_miss_latency::.cpu.data 74356.435644                       # average ReadReq mshr miss latency
system.cpu.dcache.ReadReq_avg_mshr_miss_latency::total 74356.435644                       # average ReadReq mshr miss latency
system.cpu.dcache.WriteReq_hits::.cpu.data         1747                       # number of WriteReq hits
system.cpu.dcache.WriteReq_hits::total           1747                       # number of WriteReq hits
system.cpu.dcache.WriteReq_misses::.cpu.data          115                       # number of WriteReq misses
system.cpu.dcache.WriteReq_misses::total          115                       # number of WriteReq misses
system.cpu.dcache.WriteReq_miss_latency::.cpu.data      8222000                       # number of WriteReq miss cycles
system.cpu.dcache.WriteReq_miss_latency::total      8222000                       # number of WriteReq miss cycles
system.cpu.dcache.WriteReq_accesses::.cpu.data         1862                       # number of WriteReq accesses(hits+misses)
system.cpu.dcache.WriteReq_accesses::total         1862                       # number of WriteReq accesses(hits+misses)
system.cpu.dcache.WriteReq_miss_rate::.cpu.data     0.061762                       # miss rate for WriteReq accesses
system.cpu.dcache.WriteReq_miss_rate::total     0.061762                       # miss rate for WriteReq accesses
system.cpu.dcache.WriteReq_avg_miss_latency::.cpu.data 71495.652174                       # average WriteReq miss latency
system.cpu.dcache.WriteReq_avg_miss_latency::total 71495.652174                       # average WriteReq miss latency
system.cpu.dcache.WriteReq_mshr_hits::.cpu.data           45                       # number of WriteReq MSHR hits
system.cpu.dcache.WriteReq_mshr_hits::total           45                       # number of WriteReq MSHR hits
system.cpu.dcache.WriteReq_mshr_misses::.cpu.data           70                       # number of WriteReq MSHR misses
system.cpu.dcache.WriteReq_mshr_misses::total           70                       # number of WriteReq MSHR misses
system.cpu.dcache.WriteReq_mshr_miss_latency::.cpu.data      4837500                       # number of WriteReq MSHR miss cycles
system.cpu.dcache.WriteReq_mshr_miss_latency::total      4837500                       # number of WriteReq MSHR miss cycles
system.cpu.dcache.WriteReq_mshr_miss_rate::.cpu.data     0.037594                       # mshr miss rate for WriteReq accesses
system.cpu.dcache.WriteReq_mshr_miss_rate::total     0.037594                       # mshr miss rate for WriteReq accesses
system.cpu.dcache.WriteReq_avg_mshr_miss_latency::.cpu.data 69107.142857                       # average WriteReq mshr miss latency
system.cpu.dcache.WriteReq_avg_mshr_miss_latency::total 69107.142857                       # average WriteReq mshr miss latency
system.cpu.dcache.SoftPFReq_hits::.cpu.data           18                       # number of SoftPFReq hits
system.cpu.dcache.SoftPFReq_hits::total            18                       # number of SoftPFReq hits
system.cpu.dcache.SoftPFReq_misses::.cpu.data           10                       # number of SoftPFReq misses
system.cpu.dcache.SoftPFReq_misses::total           10                       # number of SoftPFReq misses
system.cpu.dcache.SoftPFReq_accesses::.cpu.data           28                       # number of SoftPFReq accesses(hits+misses)
system.cpu.dcache.SoftPFReq_accesses::total           28                       # number of SoftPFReq accesses(hits+misses)
system.cpu.dcache.SoftPFReq_miss_rate::.cpu.data     0.357143                       # miss rate for SoftPFReq accesses
system.cpu.dcache.SoftPFReq_miss_rate::total     0.357143                       # miss rate for SoftPFReq accesses
system.cpu.dcache.SoftPFReq_mshr_misses::.cpu.data            7                       # number of SoftPFReq MSHR misses
system.cpu.dcache.SoftPFReq_mshr_misses::total            7                       # number of SoftPFReq MSHR misses
system.cpu.dcache.SoftPFReq_mshr_miss_latency::.cpu.data       468500                       # number of SoftPFReq MSHR miss cycles
system.cpu.dcache.SoftPFReq_mshr_miss_latency::total       468500                       # number of SoftPFReq MSHR miss cycles
system.cpu.dcache.SoftPFReq_mshr_miss_rate::.cpu.data     0.250000                       # mshr miss rate for SoftPFReq accesses
system.cpu.dcache.SoftPFReq_mshr_miss_rate::total     0.250000                       # mshr miss rate for SoftPFReq accesses
system.cpu.dcache.SoftPFReq_avg_mshr_miss_latency::.cpu.data 66928.571429                       # average SoftPFReq mshr miss latency
system.cpu.dcache.SoftPFReq_avg_mshr_miss_latency::total 66928.571429                       # average SoftPFReq mshr miss latency
system.cpu.dcache.LoadLockedReq_hits::.cpu.data           26                       # number of LoadLockedReq hits
system.cpu.dcache.LoadLockedReq_hits::total           26                       # number of LoadLockedReq hits
system.cpu.dcache.LoadLockedReq_accesses::.cpu.data           26                       # number of LoadLockedReq accesses(hits+misses)
system.cpu.dcache.LoadLockedReq_accesses::total           26                       # number of LoadLockedReq accesses(hits+misses)
system.cpu.dcache.StoreCondReq_hits::.cpu.data           26                       # number of StoreCondReq hits
system.cpu.dcache.StoreCondReq_hits::total           26                       # number of StoreCondReq hits
system.cpu.dcache.StoreCondReq_accesses::.cpu.data           26                       # number of StoreCondReq accesses(hits+misses)
system.cpu.dcache.StoreCondReq_accesses::total           26                       # number of StoreCondReq accesses(hits+misses)
system.cpu.dcache.power_state.pwrStateResidencyTicks::UNDEFINED     43126000                       # Cumulative time (in ticks) in various power states
system.cpu.dcache.tags.tagsinuse           106.724112                       # Cycle average of tags in use
system.cpu.dcache.tags.total_refs                3869                       # Total number of references to valid blocks.
system.cpu.dcache.tags.sampled_refs               178                       # Sample count of references to valid blocks.
system.cpu.dcache.tags.avg_refs             21.735955                       # Average number of references to valid blocks.
system.cpu.dcache.tags.warmup_cycle            168000                       # Cycle when the warmup percentage was hit.
system.cpu.dcache.tags.occ_blocks::.cpu.data   106.724112                       # Average occupied blocks per requestor
system.cpu.dcache.tags.occ_percent::.cpu.data     0.104223                       # Average percentage of cache occupancy
system.cpu.dcache.tags.occ_percent::total     0.104223                       # Average percentage of cache occupancy
system.cpu.dcache.tags.occ_task_id_blocks::1024          178                       # Occupied blocks per task id
system.cpu.dcache.tags.age_task_id_blocks_1024::0           16                       # Occupied blocks per task id
system.cpu.dcache.tags.age_task_id_blocks_1024::1          162                       # Occupied blocks per task id
system.cpu.dcache.tags.occ_task_id_percent::1024     0.173828                       # Percentage of cache occupancy per task id
system.cpu.dcache.tags.tag_accesses              8022                       # Number of tag accesses
system.cpu.dcache.tags.data_accesses             8022                       # Number of data accesses
system.cpu.dcache.tags.power_state.pwrStateResidencyTicks::UNDEFINED     43126000                       # Cumulative time (in ticks) in various power states
system.cpu.dtb.instHits                             0                       # ITB inst hits
system.cpu.dtb.instMisses                           0                       # ITB inst misses
system.cpu.dtb.readHits                             0                       # DTB read hits
system.cpu.dtb.readMisses                           0                       # DTB read misses
system.cpu.dtb.writeHits                            0                       # DTB write hits
system.cpu.dtb.writeMisses                          0                       # DTB write misses
system.cpu.dtb.inserts                              0                       # Number of times an entry is inserted into the TLB
system.cpu.dtb.flushTlb                             0                       # Number of times complete TLB was flushed
system.cpu.dtb.flushTlbMva                          0                       # Number of times TLB was flushed by MVA
system.cpu.dtb.flushTlbMvaAsid                      0                       # Number of times TLB was flushed by MVA & ASID
system.cpu.dtb.flushTlbAsid                         0                       # Number of times TLB was flushed by ASID
system.cpu.dtb.flushedEntries                       0                       # Number of entries that have been flushed from TLB
system.cpu.dtb.alignFaults                          0                       # Number of TLB faults due to alignment restrictions
system.cpu.dtb.prefetchFaults                       0                       # Number of TLB faults due to prefetch
system.cpu.dtb.domainFaults                         0                       # Number of TLB faults due to domain restrictions
system.cpu.dtb.permsFaults                          0                       # Number of TLB faults due to permissions restrictions
system.cpu.dtb.readAccesses                         0                       # DTB read accesses
system.cpu.dtb.writeAccesses                        0                       # DTB write accesses
system.cpu.dtb.instAccesses                         0                       # ITB inst accesses
system.cpu.dtb.hits                                 0                       # Total TLB (inst and data) hits
system.cpu.dtb.misses                               0                       # Total TLB (inst and data) misses
system.cpu.dtb.accesses                             0                       # Total TLB (inst and data) accesses
system.cpu.dtb.stage2_mmu.stage2_tlb.instHits            0                       # ITB inst hits
system.cpu.dtb.stage2_mmu.stage2_tlb.instMisses            0                       # ITB inst misses
system.cpu.dtb.stage2_mmu.stage2_tlb.readHits            0                       # DTB read hits
system.cpu.dtb.stage2_mmu.stage2_tlb.readMisses            0                       # DTB read misses
system.cpu.dtb.stage2_mmu.stage2_tlb.writeHits            0                       # DTB write hits
system.cpu.dtb.stage2_mmu.stage2_tlb.writeMisses            0                       # DTB write misses
system.cpu.dtb.stage2_mmu.stage2_tlb.inserts            0                       # Number of times an entry is inserted into the TLB
system.cpu.dtb.stage2_mmu.stage2_tlb.flushTlb            0                       # Number of times complete TLB was flushed
system.cpu.dtb.stage2_mmu.stage2_tlb.flushTlbMva            0                       # Number of times TLB was flushed by MVA
system.cpu.dtb.stage2_mmu.stage2_tlb.flushTlbMvaAsid            0                       # Number of times TLB was flushed by MVA & ASID
system.cpu.dtb.stage2_mmu.stage2_tlb.flushTlbAsid            0                       # Number of times TLB was flushed by ASID
system.cpu.dtb.stage2_mmu.stage2_tlb.flushedEntries            0                       # Number of entries that have been flushed from TLB
system.cpu.dtb.stage2_mmu.stage2_tlb.alignFaults            0                       # Number of TLB faults due to alignment restrictions
system.cpu.dtb.stage2_mmu.stage2_tlb.prefetchFaults            0                       # Number of TLB faults due to prefetch
system.cpu.dtb.stage2_mmu.stage2_tlb.domainFaults            0                       # Number of TLB faults due to domain restrictions
system.cpu.dtb.stage2_mmu.stage2_tlb.permsFaults            0                       # Number of TLB faults due to permissions restrictions
system.cpu.dtb.stage2_mmu.stage2_tlb.readAccesses            0                       # DTB read accesses
system.cpu.dtb.stage2_mmu.stage2_tlb.writeAccesses            0                       # DTB write accesses
system.cpu.dtb.stage2_mmu.stage2_tlb.instAccesses            0                       # ITB inst accesses
system.cpu.dtb.stage2_mmu.stage2_tlb.hits            0                       # Total TLB (inst and data) hits
system.cpu.dtb.stage2_mmu.stage2_tlb.misses            0                       # Total TLB (inst and data) misses
system.cpu.dtb.stage2_mmu.stage2_tlb.accesses            0                       # Total TLB (inst and data) accesses
system.cpu.dtb.stage2_mmu.stage2_tlb.walker.walks            0                       # Table walker walks requested
system.cpu.dtb.stage2_mmu.stage2_tlb.walker.requestOrigin_Requested::Data            0                       # Table walker requests started/completed, data/inst
system.cpu.dtb.stage2_mmu.stage2_tlb.walker.requestOrigin_Requested::Inst            0                       # Table walker requests started/completed, data/inst
system.cpu.dtb.stage2_mmu.stage2_tlb.walker.requestOrigin_Requested::total            0                       # Table walker requests started/completed, data/inst
system.cpu.dtb.stage2_mmu.stage2_tlb.walker.requestOrigin_Completed::Data            0                       # Table walker requests started/completed, data/inst
system.cpu.dtb.stage2_mmu.stage2_tlb.walker.requestOrigin_Completed::Inst            0                       # Table walker requests started/completed, data/inst
system.cpu.dtb.stage2_mmu.stage2_tlb.walker.requestOrigin_Completed::total            0                       # Table walker requests started/completed, data/inst
system.cpu.dtb.stage2_mmu.stage2_tlb.walker.requestOrigin::total            0                       # Table walker requests started/completed, data/inst
system.cpu.dtb.stage2_mmu.stage2_tlb.walker.power_state.pwrStateResidencyTicks::UNDEFINED     43126000                       # Cumulative time (in ticks) in various power states
system.cpu.dtb.walker.walks                         0                       # Table walker walks requested
system.cpu.dtb.walker.requestOrigin_Requested::Data            0                       # Table walker requests started/completed, data/inst
system.cpu.dtb.walker.requestOrigin_Requested::Inst            0                       # Table walker requests started/completed, data/inst
system.cpu.dtb.walker.requestOrigin_Requested::total            0                       # Table walker requests started/completed, data/inst
system.cpu.dtb.walker.requestOrigin_Completed::Data            0                       # Table walker requests started/completed, data/inst
system.cpu.dtb.walker.requestOrigin_Completed::Inst            0                       # Table walker requests started/completed, data/inst
system.cpu.dtb.walker.requestOrigin_Completed::total            0                       # Table walker requests started/completed, data/inst
system.cpu.dtb.walker.requestOrigin::total            0                       # Table walker requests started/completed, data/inst
system.cpu.dtb.walker.power_state.pwrStateResidencyTicks::UNDEFINED     43126000                       # Cumulative time (in ticks) in various power states
system.cpu.fetch2.intInstructions               10767                       # Number of integer instructions successfully decoded
system.cpu.fetch2.fpInstructions                    0                       # Number of floating point instructions successfully decoded
system.cpu.fetch2.vecInstructions                   0                       # Number of SIMD instructions successfully decoded
system.cpu.fetch2.loadInstructions               2430                       # Number of memory load instructions successfully decoded
system.cpu.fetch2.storeInstructions              1554                       # Number of memory store instructions successfully decoded
system.cpu.fetch2.amoInstructions                   0                       # Number of memory atomic instructions successfully decoded
system.cpu.icache.demand_hits::.cpu.inst         3797                       # number of demand (read+write) hits
system.cpu.icache.demand_hits::total             3797                       # number of demand (read+write) hits
system.cpu.icache.overall_hits::.cpu.inst         3797                       # number of overall hits
system.cpu.icache.overall_hits::total            3797                       # number of overall hits
system.cpu.icache.demand_misses::.cpu.inst          445                       # number of demand (read+write) misses
system.cpu.icache.demand_misses::total            445                       # number of demand (read+write) misses
system.cpu.icache.overall_misses::.cpu.inst          445                       # number of overall misses
system.cpu.icache.overall_misses::total           445                       # number of overall misses
system.cpu.icache.demand_miss_latency::.cpu.inst     30016500                       # number of demand (read+write) miss cycles
system.cpu.icache.demand_miss_latency::total     30016500                       # number of demand (read+write) miss cycles
system.cpu.icache.overall_miss_latency::.cpu.inst     30016500                       # number of overall miss cycles
system.cpu.icache.overall_miss_latency::total     30016500                       # number of overall miss cycles
system.cpu.icache.demand_accesses::.cpu.inst         4242                       # number of demand (read+write) accesses
system.cpu.icache.demand_accesses::total         4242                       # number of demand (read+write) accesses
system.cpu.icache.overall_accesses::.cpu.inst         4242                       # number of overall (read+write) accesses
system.cpu.icache.overall_accesses::total         4242                       # number of overall (read+write) accesses
system.cpu.icache.demand_miss_rate::.cpu.inst     0.104903                       # miss rate for demand accesses
system.cpu.icache.demand_miss_rate::total     0.104903                       # miss rate for demand accesses
system.cpu.icache.overall_miss_rate::.cpu.inst     0.104903                       # miss rate for overall accesses
system.cpu.icache.overall_miss_rate::total     0.104903                       # miss rate for overall accesses
system.cpu.icache.demand_avg_miss_latency::.cpu.inst 67452.808989                       # average overall miss latency
system.cpu.icache.demand_avg_miss_latency::total 67452.808989                       # average overall miss latency
system.cpu.icache.overall_avg_miss_latency::.cpu.inst 67452.808989                       # average overall miss latency
system.cpu.icache.overall_avg_miss_latency::total 67452.808989                       # average overall miss latency
system.cpu.icache.blocked_cycles::no_mshrs            0                       # number of cycles access was blocked
system.cpu.icache.blocked_cycles::no_targets            0                       # number of cycles access was blocked
system.cpu.icache.blocked::no_mshrs                 0                       # number of cycles access was blocked
system.cpu.icache.blocked::no_targets               0                       # number of cycles access was blocked
system.cpu.icache.avg_blocked_cycles::no_mshrs          nan                       # average number of cycles each access was blocked
system.cpu.icache.avg_blocked_cycles::no_targets          nan                       # average number of cycles each access was blocked
system.cpu.icache.writebacks::.writebacks          118                       # number of writebacks
system.cpu.icache.writebacks::total               118                       # number of writebacks
system.cpu.icache.demand_mshr_misses::.cpu.inst          445                       # number of demand (read+write) MSHR misses
system.cpu.icache.demand_mshr_misses::total          445                       # number of demand (read+write) MSHR misses
system.cpu.icache.overall_mshr_misses::.cpu.inst          445                       # number of overall MSHR misses
system.cpu.icache.overall_mshr_misses::total          445                       # number of overall MSHR misses
system.cpu.icache.demand_mshr_miss_latency::.cpu.inst     29571500                       # number of demand (read+write) MSHR miss cycles
system.cpu.icache.demand_mshr_miss_latency::total     29571500                       # number of demand (read+write) MSHR miss cycles
system.cpu.icache.overall_mshr_miss_latency::.cpu.inst     29571500                       # number of overall MSHR miss cycles
system.cpu.icache.overall_mshr_miss_latency::total     29571500                       # number of overall MSHR miss cycles
system.cpu.icache.demand_mshr_miss_rate::.cpu.inst     0.104903                       # mshr miss rate for demand accesses
system.cpu.icache.demand_mshr_miss_rate::total     0.104903                       # mshr miss rate for demand accesses
system.cpu.icache.overall_mshr_miss_rate::.cpu.inst     0.104903                       # mshr miss rate for overall accesses
system.cpu.icache.overall_mshr_miss_rate::total     0.104903                       # mshr miss rate for overall accesses
system.cpu.icache.demand_avg_mshr_miss_latency::.cpu.inst 66452.808989                       # average overall mshr miss latency
system.cpu.icache.demand_avg_mshr_miss_latency::total 66452.808989                       # average overall mshr miss latency
system.cpu.icache.overall_avg_mshr_miss_latency::.cpu.inst 66452.808989                       # average overall mshr miss latency
system.cpu.icache.overall_avg_mshr_miss_latency::total 66452.808989                       # average overall mshr miss latency
system.cpu.icache.replacements                    118                       # number of replacements
system.cpu.icache.ReadReq_hits::.cpu.inst         3797                       # number of ReadReq hits
system.cpu.icache.ReadReq_hits::total            3797                       # number of ReadReq hits
system.cpu.icache.ReadReq_misses::.cpu.inst          445                       # number of ReadReq misses
system.cpu.icache.ReadReq_misses::total           445                       # number of ReadReq misses
system.cpu.icache.ReadReq_miss_latency::.cpu.inst     30016500                       # number of ReadReq miss cycles
system.cpu.icache.ReadReq_miss_latency::total     30016500                       # number of ReadReq miss cycles
system.cpu.icache.ReadReq_accesses::.cpu.inst         4242                       # number of ReadReq accesses(hits+misses)
system.cpu.icache.ReadReq_accesses::total         4242                       # number of ReadReq accesses(hits+misses)
system.cpu.icache.ReadReq_miss_rate::.cpu.inst     0.104903                       # miss rate for ReadReq accesses
system.cpu.icache.ReadReq_miss_rate::total     0.104903                       # miss rate for ReadReq accesses
system.cpu.icache.ReadReq_avg_miss_latency::.cpu.inst 67452.808989                       # average ReadReq miss latency
system.cpu.icache.ReadReq_avg_miss_latency::total 67452.808989                       # average ReadReq miss latency
system.cpu.icache.ReadReq_mshr_misses::.cpu.inst          445                       # number of ReadReq MSHR misses
system.cpu.icache.ReadReq_mshr_misses::total          445                       # number of ReadReq MSHR misses
system.cpu.icache.ReadReq_mshr_miss_latency::.cpu.inst     29571500                       # number of ReadReq MSHR miss cycles
system.cpu.icache.ReadReq_mshr_miss_latency::total     29571500                       # number of ReadReq MSHR miss cycles
system.cpu.icache.ReadReq_mshr_miss_rate::.cpu.inst     0.104903                       # mshr miss rate for ReadReq accesses
system.cpu.icache.ReadReq_mshr_miss_rate::total     0.104903                       # mshr miss rate for ReadReq accesses
system.cpu.icache.ReadReq_avg_mshr_miss_latency::.cpu.inst 66452.808989                       # average ReadReq mshr miss latency
system.cpu.icache.ReadReq_avg_mshr_miss_latency::total 66452.808989                       # average ReadReq mshr miss latency
system.cpu.icache.power_state.pwrStateResidencyTicks::UNDEFINED     43126000                       # Cumulative time (in ticks) in various power states
system.cpu.icache.tags.tagsinuse           185.835648                       # Cycle average of tags in use
system.cpu.icache.tags.total_refs                4242                       # Total number of references to valid blocks.
system.cpu.icache.tags.sampled_refs               445                       # Sample count of references to valid blocks.
system.cpu.icache.tags.avg_refs              9.532584                       # Average number of references to valid blocks.
system.cpu.icache.tags.warmup_cycle             88000                       # Cycle when the warmup percentage was hit.
system.cpu.icache.tags.occ_blocks::.cpu.inst   185.835648                       # Average occupied blocks per requestor
system.cpu.icache.tags.occ_percent::.cpu.inst     0.362960                       # Average percentage of cache occupancy
system.cpu.icache.tags.occ_percent::total     0.362960                       # Average percentage of cache occupancy
system.cpu.icache.tags.occ_task_id_blocks::1024          327                       # Occupied blocks per task id
system.cpu.icache.tags.age_task_id_blocks_1024::0           83                       # Occupied blocks per task id
system.cpu.icache.tags.age_task_id_blocks_1024::1          244                       # Occupied blocks per task id
system.cpu.icache.tags.occ_task_id_percent::1024     0.638672                       # Percentage of cache occupancy per task id
system.cpu.icache.tags.tag_accesses              8929                       # Number of tag accesses
system.cpu.icache.tags.data_accesses             8929                       # Number of data accesses
system.cpu.icache.tags.power_state.pwrStateResidencyTicks::UNDEFINED     43126000                       # Cumulative time (in ticks) in various power states
system.cpu.itb.instHits                             0                       # ITB inst hits
system.cpu.itb.instMisses                           0                       # ITB inst misses
system.cpu.itb.readHits                             0                       # DTB read hits
system.cpu.itb.readMisses                           0                       # DTB read misses
system.cpu.itb.writeHits                            0                       # DTB write hits
system.cpu.itb.writeMisses                          0                       # DTB write misses
system.cpu.itb.inserts                              0                       # Number of times an entry is inserted into the TLB
system.cpu.itb.flushTlb                             0                       # Number of times complete TLB was flushed
system.cpu.itb.flushTlbMva                          0                       # Number of times TLB was flushed by MVA
system.cpu.itb.flushTlbMvaAsid                      0                       # Number of times TLB was flushed by MVA & ASID
system.cpu.itb.flushTlbAsid                         0                       # Number of times TLB was flushed by ASID
system.cpu.itb.flushedEntries                       0                       # Number of entries that have been flushed from TLB
system.cpu.itb.alignFaults                          0                       # Number of TLB faults due to alignment restrictions
system.cpu.itb.prefetchFaults                       0                       # Number of TLB faults due to prefetch
system.cpu.itb.domainFaults                         0                       # Number of TLB faults due to domain restrictions
system.cpu.itb.permsFaults                          0                       # Number of TLB faults due to permissions restrictions
system.cpu.itb.readAccesses                         0                       # DTB read accesses
system.cpu.itb.writeAccesses                        0                       # DTB write accesses
system.cpu.itb.instAccesses                         0                       # ITB inst accesses
system.cpu.itb.hits                                 0                       # Total TLB (inst and data) hits
system.cpu.itb.misses                               0                       # Total TLB (inst and data) misses
system.cpu.itb.accesses                             0                       # Total TLB (inst and data) accesses
system.cpu.itb.stage2_mmu.stage2_tlb.instHits            0                       # ITB inst hits
system.cpu.itb.stage2_mmu.stage2_tlb.instMisses            0                       # ITB inst misses
system.cpu.itb.stage2_mmu.stage2_tlb.readHits            0                       # DTB read hits
system.cpu.itb.stage2_mmu.stage2_tlb.readMisses            0                       # DTB read misses
system.cpu.itb.stage2_mmu.stage2_tlb.writeHits            0                       # DTB write hits
system.cpu.itb.stage2_mmu.stage2_tlb.writeMisses            0                       # DTB write misses
system.cpu.itb.stage2_mmu.stage2_tlb.inserts            0                       # Number of times an entry is inserted into the TLB
system.cpu.itb.stage2_mmu.stage2_tlb.flushTlb            0                       # Number of times complete TLB was flushed
system.cpu.itb.stage2_mmu.stage2_tlb.flushTlbMva            0                       # Number of times TLB was flushed by MVA
system.cpu.itb.stage2_mmu.stage2_tlb.flushTlbMvaAsid            0                       # Number of times TLB was flushed by MVA & ASID
system.cpu.itb.stage2_mmu.stage2_tlb.flushTlbAsid            0                       # Number of times TLB was flushed by ASID
system.cpu.itb.stage2_mmu.stage2_tlb.flushedEntries            0                       # Number of entries that have been flushed from TLB
system.cpu.itb.stage2_mmu.stage2_tlb.alignFaults            0                       # Number of TLB faults due to alignment restrictions
system.cpu.itb.stage2_mmu.stage2_tlb.prefetchFaults            0                       # Number of TLB faults due to prefetch
system.cpu.itb.stage2_mmu.stage2_tlb.domainFaults            0                       # Number of TLB faults due to domain restrictions
system.cpu.itb.stage2_mmu.stage2_tlb.permsFaults            0                       # Number of TLB faults due to permissions restrictions
system.cpu.itb.stage2_mmu.stage2_tlb.readAccesses            0                       # DTB read accesses
system.cpu.itb.stage2_mmu.stage2_tlb.writeAccesses            0                       # DTB write accesses
system.cpu.itb.stage2_mmu.stage2_tlb.instAccesses            0                       # ITB inst accesses
system.cpu.itb.stage2_mmu.stage2_tlb.hits            0                       # Total TLB (inst and data) hits
system.cpu.itb.stage2_mmu.stage2_tlb.misses            0                       # Total TLB (inst and data) misses
system.cpu.itb.stage2_mmu.stage2_tlb.accesses            0                       # Total TLB (inst and data) accesses
system.cpu.itb.stage2_mmu.stage2_tlb.walker.walks            0                       # Table walker walks requested
system.cpu.itb.stage2_mmu.stage2_tlb.walker.requestOrigin_Requested::Data            0                       # Table walker requests started/completed, data/inst
system.cpu.itb.stage2_mmu.stage2_tlb.walker.requestOrigin_Requested::Inst            0                       # Table walker requests started/completed, data/inst
system.cpu.itb.stage2_mmu.stage2_tlb.walker.requestOrigin_Requested::total            0                       # Table walker requests started/completed, data/inst
system.cpu.itb.stage2_mmu.stage2_tlb.walker.requestOrigin_Completed::Data            0                       # Table walker requests started/completed, data/inst
system.cpu.itb.stage2_mmu.stage2_tlb.walker.requestOrigin_Completed::Inst            0                       # Table walker requests started/completed, data/inst
system.cpu.itb.stage2_mmu.stage2_tlb.walker.requestOrigin_Completed::total            0                       # Table walker requests started/completed, data/inst
system.cpu.itb.stage2_mmu.stage2_tlb.walker.requestOrigin::total            0                       # Table walker requests started/completed, data/inst
system.cpu.itb.stage2_mmu.stage2_tlb.walker.power_state.pwrStateResidencyTicks::UNDEFINED     43126000                       # Cumulative time (in ticks) in various power states
system.cpu.itb.walker.walks                         0                       # Table walker walks requested
system.cpu.itb.walker.requestOrigin_Requested::Data            0                       # Table walker requests started/completed, data/inst
system.cpu.itb.walker.requestOrigin_Requested::Inst            0                       # Table walker requests started/completed, data/inst
system.cpu.itb.walker.requestOrigin_Requested::total            0                       # Table walker requests started/completed, data/inst
system.cpu.itb.walker.requestOrigin_Completed::Data            0                       # Table walker requests started/completed, data/inst
system.cpu.itb.walker.requestOrigin_Completed::Inst            0                       # Table walker requests started/completed, data/inst
system.cpu.itb.walker.requestOrigin_Completed::total            0                       # Table walker requests started/completed, data/inst
system.cpu.itb.walker.requestOrigin::total            0                       # Table walker requests started/completed, data/inst
system.cpu.itb.walker.power_state.pwrStateResidencyTicks::UNDEFINED     43126000                       # Cumulative time (in ticks) in various power states
system.cpu.power_state.pwrStateResidencyTicks::ON     43126000                       # Cumulative time (in ticks) in various power states
system.cpu.thread_0.numInsts                    10572                       # Number of Instructions committed
system.cpu.thread_0.numOps                      12190                       # Number of Ops committed
system.cpu.thread_0.numMemRefs                      0                       # Number of Memory References
system.cpu_clk_domain.clock                       500                       # Clock period in ticks
system.cpu_voltage_domain.voltage                   1                       # Voltage in Volts
system.mem_ctrls.avgPriority_.writebacks::samples        87.00                       # Average QoS priority value for accepted requests
system.mem_ctrls.avgPriority_.cpu.inst::samples       406.00                       # Average QoS priority value for accepted requests
system.mem_ctrls.avgPriority_.cpu.data::samples       177.00                       # Average QoS priority value for accepted requests
system.mem_ctrls.priorityMinLatency      0.000000018750                       # per QoS priority minimum request to response latency (s)
system.mem_ctrls.priorityMaxLatency      0.000033608250                       # per QoS priority maximum request to response latency (s)
system.mem_ctrls.numReadWriteTurnArounds            4                       # Number of turnarounds from READ to WRITE
system.mem_ctrls.numWriteReadTurnArounds            4                       # Number of turnarounds from WRITE to READ
system.mem_ctrls.numStayReadState                1276                       # Number of times bus staying in READ state
system.mem_ctrls.numStayWriteState                 60                       # Number of times bus staying in WRITE state
system.mem_ctrls.readReqs                         623                       # Number of read requests accepted
system.mem_ctrls.writeReqs                        112                       # Number of write requests accepted
system.mem_ctrls.readBursts                       623                       # Number of controller read bursts, including those serviced by the write queue
system.mem_ctrls.writeBursts                      112                       # Number of controller write bursts, including those merged in the write queue
system.mem_ctrls.servicedByWrQ                     40                       # Number of controller read bursts serviced by the write queue
system.mem_ctrls.mergedWrBursts                    25                       # Number of controller write bursts merged with an existing one
system.mem_ctrls.neitherReadNorWriteReqs            0                       # Number of requests that are neither read nor write
system.mem_ctrls.avgRdQLen                       1.17                       # Average read queue length when enqueuing
system.mem_ctrls.avgWrQLen                      13.28                       # Average write queue length when enqueuing
system.mem_ctrls.numRdRetry                         0                       # Number of times read queue was full causing retry
system.mem_ctrls.numWrRetry                         0                       # Number of times write queue was full causing retry
system.mem_ctrls.readPktSize::0                     0                       # Read request sizes (log2)
system.mem_ctrls.readPktSize::1                     0                       # Read request sizes (log2)
system.mem_ctrls.readPktSize::2                     0                       # Read request sizes (log2)
system.mem_ctrls.readPktSize::3                     0                       # Read request sizes (log2)
system.mem_ctrls.readPktSize::4                     0                       # Read request sizes (log2)
system.mem_ctrls.readPktSize::5                     0                       # Read request sizes (log2)
system.mem_ctrls.readPktSize::6                   623                       # Read request sizes (log2)
system.mem_ctrls.writePktSize::0                    0                       # Write request sizes (log2)
system.mem_ctrls.writePktSize::1                    0                       # Write request sizes (log2)
system.mem_ctrls.writePktSize::2                    0                       # Write request sizes (log2)
system.mem_ctrls.writePktSize::3                    0                       # Write request sizes (log2)
system.mem_ctrls.writePktSize::4                    0                       # Write request sizes (log2)
system.mem_ctrls.writePktSize::5                    0                       # Write request sizes (log2)
system.mem_ctrls.writePktSize::6                  112                       # Write request sizes (log2)
system.mem_ctrls.rdQLenPdf::0                     490                       # What read queue length does an incoming req see
system.mem_ctrls.rdQLenPdf::1                      84                       # What read queue length does an incoming req see
system.mem_ctrls.rdQLenPdf::2                       9                       # What read queue length does an incoming req see
system.mem_ctrls.rdQLenPdf::3                       0                       # What read queue length does an incoming req see
system.mem_ctrls.rdQLenPdf::4                       0                       # What read queue length does an incoming req see
system.mem_ctrls.rdQLenPdf::5                       0                       # What read queue length does an incoming req see
system.mem_ctrls.rdQLenPdf::6                       0                       # What read queue length does an incoming req see
system.mem_ctrls.rdQLenPdf::7                       0                       # What read queue length does an incoming req see
system.mem_ctrls.rdQLenPdf::8                       0                       # What read queue length does an incoming req see
system.mem_ctrls.rdQLenPdf::9                       0                       # What read queue length does an incoming req see
system.mem_ctrls.rdQLenPdf::10                      0                       # What read queue length does an incoming req see
system.mem_ctrls.rdQLenPdf::11                      0                       # What read queue length does an incoming req see
system.mem_ctrls.rdQLenPdf::12                      0                       # What read queue length does an incoming req see
system.mem_ctrls.rdQLenPdf::13                      0                       # What read queue length does an incoming req see
system.mem_ctrls.rdQLenPdf::14                      0                       # What read queue length does an incoming req see
system.mem_ctrls.rdQLenPdf::15                      0                       # What read queue length does an incoming req see
system.mem_ctrls.rdQLenPdf::16                      0                       # What read queue length does an incoming req see
system.mem_ctrls.rdQLenPdf::17                      0                       # What read queue length does an incoming req see
system.mem_ctrls.rdQLenPdf::18                      0                       # What read queue length does an incoming req see
system.mem_ctrls.rdQLenPdf::19                      0                       # What read queue length does an incoming req see
system.mem_ctrls.rdQLenPdf::20                      0                       # What read queue length does an incoming req see
system.mem_ctrls.rdQLenPdf::21                      0                       # What read queue length does an incoming req see
system.mem_ctrls.rdQLenPdf::22                      0                       # What read queue length does an incoming req see
system.mem_ctrls.rdQLenPdf::23                      0                       # What read queue length does an incoming req see
system.mem_ctrls.rdQLenPdf::24                      0                       # What read queue length does an incoming req see
system.mem_ctrls.rdQLenPdf::25                      0                       # What read queue length does an incoming req see
system.mem_ctrls.rdQLenPdf::26                      0                       # What read queue length does an incoming req see
system.mem_ctrls.rdQLenPdf::27                      0                       # What read queue length does an incoming req see
system.mem_ctrls.rdQLenPdf::28                      0                       # What read queue length does an incoming req see
system.mem_ctrls.rdQLenPdf::29                      0                       # What read queue length does an incoming req see
system.mem_ctrls.rdQLenPdf::30                      0                       # What read queue length does an incoming req see
system.mem_ctrls.rdQLenPdf::31                      0                       # What read queue length does an incoming req see
system.mem_ctrls.wrQLenPdf::0                       1                       # What write queue length does an incoming req see
system.mem_ctrls.wrQLenPdf::1                       1                       # What write queue length does an incoming req see
system.mem_ctrls.wrQLenPdf::2                       1                       # What write queue length does an incoming req see
system.mem_ctrls.wrQLenPdf::3                       1                       # What write queue length does an incoming req see
system.mem_ctrls.wrQLenPdf::4                       1                       # What write queue length does an incoming req see
system.mem_ctrls.wrQLenPdf::5                       1                       # What write queue length does an incoming req see
system.mem_ctrls.wrQLenPdf::6                       1                       # What write queue length does an incoming req see
system.mem_ctrls.wrQLenPdf::7                       1                       # What write queue length does an incoming req see
system.mem_ctrls.wrQLenPdf::8                       1                       # What write queue length does an incoming req see
system.mem_ctrls.wrQLenPdf::9                       1                       # What write queue length does an incoming req see
system.mem_ctrls.wrQLenPdf::10                      1                       # What write queue length does an incoming req see
system.mem_ctrls.wrQLenPdf::11                      1                       # What write queue length does an incoming req see
system.mem_ctrls.wrQLenPdf::12                      1                       # What write queue length does an incoming req see
system.mem_ctrls.wrQLenPdf::13                      1                       # What write queue length does an incoming req see
system.mem_ctrls.wrQLenPdf::14                      1                       # What write queue length does an incoming req see
system.mem_ctrls.wrQLenPdf::15                      1                       # What write queue length does an incoming req see
system.mem_ctrls.wrQLenPdf::16                      1                       # What write queue length does an incoming req see
system.mem_ctrls.wrQLenPdf::17                      5                       # What write queue length does an incoming req see
system.mem_ctrls.wrQLenPdf::18                      5                       # What write queue length does an incoming req see
system.mem_ctrls.wrQLenPdf::19                      5                       # What write queue length does an incoming req see
system.mem_ctrls.wrQLenPdf::20                      5                       # What write queue length does an incoming req see
system.mem_ctrls.wrQLenPdf::21                      5                       # What write queue length does an incoming req see
system.mem_ctrls.wrQLenPdf::22                      5                       # What write queue length does an incoming req see
system.mem_ctrls.wrQLenPdf::23                      4                       # What write queue length does an incoming req see
system.mem_ctrls.wrQLenPdf::24                      4                       # What write queue length does an incoming req see
system.mem_ctrls.wrQLenPdf::25                      4                       # What write queue length does an incoming req see
system.mem_ctrls.wrQLenPdf::26                      4                       # What write queue length does an incoming req see
system.mem_ctrls.wrQLenPdf::27                      4                       # What write queue length does an incoming req see
system.mem_ctrls.wrQLenPdf::28                      4                       # What write queue length does an incoming req see
system.mem_ctrls.wrQLenPdf::29                      4                       # What write queue length does an incoming req see
system.mem_ctrls.wrQLenPdf::30                      4                       # What write queue length does an incoming req see
system.mem_ctrls.wrQLenPdf::31                      4                       # What write queue length does an incoming req see
system.mem_ctrls.wrQLenPdf::32                      4                       # What write queue length does an incoming req see
system.mem_ctrls.wrQLenPdf::33                      0                       # What write queue length does an incoming req see
system.mem_ctrls.wrQLenPdf::34                      0                       # What write queue length does an incoming req see
system.mem_ctrls.wrQLenPdf::35                      0                       # What write queue length does an incoming req see
system.mem_ctrls.wrQLenPdf::36                      0                       # What write queue length does an incoming req see
system.mem_ctrls.wrQLenPdf::37                      0                       # What write queue length does an incoming req see
system.mem_ctrls.wrQLenPdf::38                      0                       # What write queue length does an incoming req see
system.mem_ctrls.wrQLenPdf::39                      0                       # What write queue length does an incoming req see
system.mem_ctrls.wrQLenPdf::40                      0                       # What write queue length does an incoming req see
system.mem_ctrls.wrQLenPdf::41                      0                       # What write queue length does an incoming req see
system.mem_ctrls.wrQLenPdf::42                      0                       # What write queue length does an incoming req see
system.mem_ctrls.wrQLenPdf::43                      0                       # What write queue length does an incoming req see
system.mem_ctrls.wrQLenPdf::44                      0                       # What write queue length does an incoming req see
system.mem_ctrls.wrQLenPdf::45                      0                       # What write queue length does an incoming req see
system.mem_ctrls.wrQLenPdf::46                      0                       # What write queue length does an incoming req see
system.mem_ctrls.wrQLenPdf::47                      0                       # What write queue length does an incoming req see
system.mem_ctrls.wrQLenPdf::48                      0                       # What write queue length does an incoming req see
system.mem_ctrls.wrQLenPdf::49                      0                       # What write queue length does an incoming req see
system.mem_ctrls.wrQLenPdf::50                      0                       # What write queue length does an incoming req see
system.mem_ctrls.wrQLenPdf::51                      0                       # What write queue length does an incoming req see
system.mem_ctrls.wrQLenPdf::52                      0                       # What write queue length does an incoming req see
system.mem_ctrls.wrQLenPdf::53                      0                       # What write queue length does an incoming req see
system.mem_ctrls.wrQLenPdf::54                      0                       # What write queue length does an incoming req see
system.mem_ctrls.wrQLenPdf::55                      0                       # What write queue length does an incoming req see
system.mem_ctrls.wrQLenPdf::56                      0                       # What write queue length does an incoming req see
system.mem_ctrls.wrQLenPdf::57                      0                       # What write queue length does an incoming req see
system.mem_ctrls.wrQLenPdf::58                      0                       # What write queue length does an incoming req see
system.mem_ctrls.wrQLenPdf::59                      0                       # What write queue length does an incoming req see
system.mem_ctrls.wrQLenPdf::60                      0                       # What write queue length does an incoming req see
system.mem_ctrls.wrQLenPdf::61                      0                       # What write queue length does an incoming req see
system.mem_ctrls.wrQLenPdf::62                      0                       # What write queue length does an incoming req see
system.mem_ctrls.wrQLenPdf::63                      0                       # What write queue length does an incoming req see
system.mem_ctrls.rdPerTurnAround::samples            4                       # Reads before turning the bus around for writes
system.mem_ctrls.rdPerTurnAround::mean     143.500000                       # Reads before turning the bus around for writes
system.mem_ctrls.rdPerTurnAround::gmean     84.567995                       # Reads before turning the bus around for writes
system.mem_ctrls.rdPerTurnAround::stdev    165.401532                       # Reads before turning the bus around for writes
system.mem_ctrls.rdPerTurnAround::16-31             1     25.00%     25.00% # Reads before turning the bus around for writes
system.mem_ctrls.rdPerTurnAround::64-79             1     25.00%     50.00% # Reads before turning the bus around for writes
system.mem_ctrls.rdPerTurnAround::80-95             1     25.00%     75.00% # Reads before turning the bus around for writes
system.mem_ctrls.rdPerTurnAround::384-399            1     25.00%    100.00% # Reads before turning the bus around for writes
system.mem_ctrls.rdPerTurnAround::total             4                       # Reads before turning the bus around for writes
system.mem_ctrls.wrPerTurnAround::samples            4                       # Writes before turning the bus around for reads
system.mem_ctrls.wrPerTurnAround::mean             16                       # Writes before turning the bus around for reads
system.mem_ctrls.wrPerTurnAround::gmean     16.000000                       # Writes before turning the bus around for reads
system.mem_ctrls.wrPerTurnAround::16                4    100.00%    100.00% # Writes before turning the bus around for reads
system.mem_ctrls.wrPerTurnAround::total             4                       # Writes before turning the bus around for reads
system.mem_ctrls.bytesReadWrQ                    2560                       # Total number of bytes read from write queue
system.mem_ctrls.bytesReadSys                   39872                       # Total read bytes from the system interface side
system.mem_ctrls.bytesWrittenSys                 7168                       # Total written bytes from the system interface side
system.mem_ctrls.avgRdBWSys                    924.55                       # Average system read bandwidth in MiByte/s
system.mem_ctrls.avgWrBWSys                    166.21                       # Average system write bandwidth in MiByte/s
system.mem_ctrls.totGap                      43055500                       # Total gap between requests
system.mem_ctrls.avgGap                      58578.91                       # Average gap between requests
system.mem_ctrls.requestorReadBytes::.cpu.inst        25984                       # Per-requestor bytes read from memory
system.mem_ctrls.requestorReadBytes::.cpu.data        11328                       # Per-requestor bytes read from memory
system.mem_ctrls.requestorWriteBytes::.writebacks         4096                       # Per-requestor bytes write to memory
system.mem_ctrls.requestorReadRate::.cpu.inst 602513564.902842879295                       # Per-requestor bytes read from memory rate (Bytes/sec)
system.mem_ctrls.requestorReadRate::.cpu.data 262672169.920697480440                       # Per-requestor bytes read from memory rate (Bytes/sec)
system.mem_ctrls.requestorWriteRate::.writebacks 94977507.767935812473                       # Per-requestor bytes write to memory rate (Bytes/sec)
system.mem_ctrls.requestorReadAccesses::.cpu.inst          445                       # Per-requestor read serviced memory accesses
system.mem_ctrls.requestorReadAccesses::.cpu.data          178                       # Per-requestor read serviced memory accesses
system.mem_ctrls.requestorWriteAccesses::.writebacks          112                       # Per-requestor write serviced memory accesses
system.mem_ctrls.requestorReadTotalLat::.cpu.inst     10330500                       # Per-requestor read total memory access latency
system.mem_ctrls.requestorReadTotalLat::.cpu.data      5040250                       # Per-requestor read total memory access latency
system.mem_ctrls.requestorWriteTotalLat::.writebacks    399903750                       # Per-requestor write total memory access latency
system.mem_ctrls.requestorReadAvgLat::.cpu.inst     23214.61                       # Per-requestor read average memory access latency
system.mem_ctrls.requestorReadAvgLat::.cpu.data     28316.01                       # Per-requestor read average memory access latency
system.mem_ctrls.requestorWriteAvgLat::.writebacks   3570569.20                       # Per-requestor write average memory access latency
system.mem_ctrls.dram.bytes_read::.cpu.inst        28480                       # Number of bytes read from this memory
system.mem_ctrls.dram.bytes_read::.cpu.data        11392                       # Number of bytes read from this memory
system.mem_ctrls.dram.bytes_read::total         39872                       # Number of bytes read from this memory
system.mem_ctrls.dram.bytes_inst_read::.cpu.inst        28480                       # Number of instructions bytes read from this memory
system.mem_ctrls.dram.bytes_inst_read::total        28480                       # Number of instructions bytes read from this memory
system.mem_ctrls.dram.num_reads::.cpu.inst          445                       # Number of read requests responded to by this memory
system.mem_ctrls.dram.num_reads::.cpu.data          178                       # Number of read requests responded to by this memory
system.mem_ctrls.dram.num_reads::total            623                       # Number of read requests responded to by this memory
system.mem_ctrls.dram.bw_read::.cpu.inst    660390484                       # Total read bandwidth from this memory (bytes/s)
system.mem_ctrls.dram.bw_read::.cpu.data    264156193                       # Total read bandwidth from this memory (bytes/s)
system.mem_ctrls.dram.bw_read::total        924546677                       # Total read bandwidth from this memory (bytes/s)
system.mem_ctrls.dram.bw_inst_read::.cpu.inst    660390484                       # Instruction read bandwidth from this memory (bytes/s)
system.mem_ctrls.dram.bw_inst_read::total    660390484                       # Instruction read bandwidth from this memory (bytes/s)
system.mem_ctrls.dram.bw_total::.cpu.inst    660390484                       # Total bandwidth to/from this memory (bytes/s)
system.mem_ctrls.dram.bw_total::.cpu.data    264156193                       # Total bandwidth to/from this memory (bytes/s)
system.mem_ctrls.dram.bw_total::total       924546677                       # Total bandwidth to/from this memory (bytes/s)
system.mem_ctrls.dram.readBursts                  583                       # Number of DRAM read bursts
system.mem_ctrls.dram.writeBursts                  64                       # Number of DRAM write bursts
system.mem_ctrls.dram.perBankRdBursts::0           58                       # Per bank write bursts
system.mem_ctrls.dram.perBankRdBursts::1            2                       # Per bank write bursts
system.mem_ctrls.dram.perBankRdBursts::2           24                       # Per bank write bursts
system.mem_ctrls.dram.perBankRdBursts::3           50                       # Per bank write bursts
system.mem_ctrls.dram.perBankRdBursts::4           12                       # Per bank write bursts
system.mem_ctrls.dram.perBankRdBursts::5           34                       # Per bank write bursts
system.mem_ctrls.dram.perBankRdBursts::6           42                       # Per bank write bursts
system.mem_ctrls.dram.perBankRdBursts::7           55                       # Per bank write bursts
system.mem_ctrls.dram.perBankRdBursts::8           56                       # Per bank write bursts
system.mem_ctrls.dram.perBankRdBursts::9           83                       # Per bank write bursts
system.mem_ctrls.dram.perBankRdBursts::10           54                       # Per bank write bursts
system.mem_ctrls.dram.perBankRdBursts::11           82                       # Per bank write bursts
system.mem_ctrls.dram.perBankRdBursts::12           14                       # Per bank write bursts
system.mem_ctrls.dram.perBankRdBursts::13            7                       # Per bank write bursts
system.mem_ctrls.dram.perBankRdBursts::14           10                       # Per bank write bursts
system.mem_ctrls.dram.perBankRdBursts::15            0                       # Per bank write bursts
system.mem_ctrls.dram.perBankWrBursts::0           11                       # Per bank write bursts
system.mem_ctrls.dram.perBankWrBursts::1            0                       # Per bank write bursts
system.mem_ctrls.dram.perBankWrBursts::2            3                       # Per bank write bursts
system.mem_ctrls.dram.perBankWrBursts::3            1                       # Per bank write bursts
system.mem_ctrls.dram.perBankWrBursts::4            0                       # Per bank write bursts
system.mem_ctrls.dram.perBankWrBursts::5            1                       # Per bank write bursts
system.mem_ctrls.dram.perBankWrBursts::6            4                       # Per bank write bursts
system.mem_ctrls.dram.perBankWrBursts::7            8                       # Per bank write bursts
system.mem_ctrls.dram.perBankWrBursts::8           11                       # Per bank write bursts
system.mem_ctrls.dram.perBankWrBursts::9            5                       # Per bank write bursts
system.mem_ctrls.dram.perBankWrBursts::10            0                       # Per bank write bursts
system.mem_ctrls.dram.perBankWrBursts::11           20                       # Per bank write bursts
system.mem_ctrls.dram.perBankWrBursts::12            0                       # Per bank write bursts
system.mem_ctrls.dram.perBankWrBursts::13            0                       # Per bank write bursts
system.mem_ctrls.dram.perBankWrBursts::14            0                       # Per bank write bursts
system.mem_ctrls.dram.perBankWrBursts::15            0                       # Per bank write bursts
system.mem_ctrls.dram.totQLat                 4439500                       # Total ticks spent queuing
system.mem_ctrls.dram.totBusLat               2915000                       # Total ticks spent in databus transfers
system.mem_ctrls.dram.totMemAccLat           15370750                       # Total ticks spent from burst creation until serviced by the DRAM
system.mem_ctrls.dram.avgQLat                 7614.92                       # Average queueing delay per DRAM burst
system.mem_ctrls.dram.avgBusLat               5000.00                       # Average bus latency per DRAM burst
system.mem_ctrls.dram.avgMemAccLat           26364.92                       # Average memory access latency per DRAM burst
system.mem_ctrls.dram.readRowHits                 471                       # Number of row buffer hits during reads
system.mem_ctrls.dram.writeRowHits                 53                       # Number of row buffer hits during writes
system.mem_ctrls.dram.readRowHitRate            80.79                       # Row buffer hit rate for reads
system.mem_ctrls.dram.writeRowHitRate           82.81                       # Row buffer hit rate for writes
system.mem_ctrls.dram.bytesPerActivate::samples          115                       # Bytes accessed per row activation
system.mem_ctrls.dram.bytesPerActivate::mean   331.130435                       # Bytes accessed per row activation
system.mem_ctrls.dram.bytesPerActivate::gmean   216.993344                       # Bytes accessed per row activation
system.mem_ctrls.dram.bytesPerActivate::stdev   306.963754                       # Bytes accessed per row activation
system.mem_ctrls.dram.bytesPerActivate::0-127           28     24.35%     24.35% # Bytes accessed per row activation
system.mem_ctrls.dram.bytesPerActivate::128-255           31     26.96%     51.30% # Bytes accessed per row activation
system.mem_ctrls.dram.bytesPerActivate::256-383           21     18.26%     69.57% # Bytes accessed per row activation
system.mem_ctrls.dram.bytesPerActivate::384-511            7      6.09%     75.65% # Bytes accessed per row activation
system.mem_ctrls.dram.bytesPerActivate::512-639            6      5.22%     80.87% # Bytes accessed per row activation
system.mem_ctrls.dram.bytesPerActivate::640-767            6      5.22%     86.09% # Bytes accessed per row activation
system.mem_ctrls.dram.bytesPerActivate::768-895            4      3.48%     89.57% # Bytes accessed per row activation
system.mem_ctrls.dram.bytesPerActivate::896-1023            1      0.87%     90.43% # Bytes accessed per row activation
system.mem_ctrls.dram.bytesPerActivate::1024-1151           11      9.57%    100.00% # Bytes accessed per row activation
system.mem_ctrls.dram.bytesPerActivate::total          115                       # Bytes accessed per row activation
system.mem_ctrls.dram.bytesRead                 37312                       # Total number of bytes read from DRAM
system.mem_ctrls.dram.bytesWritten               4096                       # Total number of bytes written to DRAM
system.mem_ctrls.dram.avgRdBW              865.185735                       # Average DRAM read bandwidth in MiBytes/s
system.mem_ctrls.dram.avgWrBW               94.977508                       # Average DRAM write bandwidth in MiBytes/s
system.mem_ctrls.dram.peakBW                 12800.00                       # Theoretical peak bandwidth in MiByte/s
system.mem_ctrls.dram.busUtil                    7.50                       # Data bus utilization in percentage
system.mem_ctrls.dram.busUtilRead                6.76                       # Data bus utilization in percentage for reads
system.mem_ctrls.dram.busUtilWrite               0.74                       # Data bus utilization in percentage for writes
system.mem_ctrls.dram.pageHitRate               80.99                       # Row buffer hit rate, read and write combined
system.mem_ctrls.dram.power_state.pwrStateResidencyTicks::UNDEFINED     43126000                       # Cumulative time (in ticks) in various power states
system.mem_ctrls.dram.rank0.actEnergy          349860                       # Energy for activate commands per rank (pJ)
system.mem_ctrls.dram.rank0.preEnergy          178365                       # Energy for precharge commands per rank (pJ)
system.mem_ctrls.dram.rank0.readEnergy        1977780                       # Energy for read commands per rank (pJ)
system.mem_ctrls.dram.rank0.writeEnergy        146160                       # Energy for write commands per rank (pJ)
system.mem_ctrls.dram.rank0.refreshEnergy 3073200.000000                       # Energy for refresh commands per rank (pJ)
system.mem_ctrls.dram.rank0.actBackEnergy     19171380                       # Energy for active background per rank (pJ)
system.mem_ctrls.dram.rank0.preBackEnergy       416160                       # Energy for precharge background per rank (pJ)
system.mem_ctrls.dram.rank0.actPowerDownEnergy            0                       # Energy for active power-down per rank (pJ)
system.mem_ctrls.dram.rank0.prePowerDownEnergy            0                       # Energy for precharge power-down per rank (pJ)
system.mem_ctrls.dram.rank0.selfRefreshEnergy            0                       # Energy for self refresh per rank (pJ)
system.mem_ctrls.dram.rank0.totalEnergy      25312905                       # Total energy per rank (pJ)
system.mem_ctrls.dram.rank0.averagePower   586.952303                       # Core power per rank (mW)
system.mem_ctrls.dram.rank0.totalIdleTime            0                       # Total Idle time Per DRAM Rank
system.mem_ctrls.dram.rank0.pwrStateTime::IDLE       931750                       # Time in different power states
system.mem_ctrls.dram.rank0.pwrStateTime::REF      1300000                       # Time in different power states
system.mem_ctrls.dram.rank0.pwrStateTime::SREF            0                       # Time in different power states
system.mem_ctrls.dram.rank0.pwrStateTime::PRE_PDN            0                       # Time in different power states
system.mem_ctrls.dram.rank0.pwrStateTime::ACT     40894250                       # Time in different power states
system.mem_ctrls.dram.rank0.pwrStateTime::ACT_PDN            0                       # Time in different power states
system.mem_ctrls.dram.rank1.actEnergy          528360                       # Energy for activate commands per rank (pJ)
system.mem_ctrls.dram.rank1.preEnergy          258060                       # Energy for precharge commands per rank (pJ)
system.mem_ctrls.dram.rank1.readEnergy        2184840                       # Energy for read commands per rank (pJ)
system.mem_ctrls.dram.rank1.writeEnergy        187920                       # Energy for write commands per rank (pJ)
system.mem_ctrls.dram.rank1.refreshEnergy 3073200.000000                       # Energy for refresh commands per rank (pJ)
system.mem_ctrls.dram.rank1.actBackEnergy     19378290                       # Energy for active background per rank (pJ)
system.mem_ctrls.dram.rank1.preBackEnergy       241920                       # Energy for precharge background per rank (pJ)
system.mem_ctrls.dram.rank1.actPowerDownEnergy            0                       # Energy for active power-down per rank (pJ)
system.mem_ctrls.dram.rank1.prePowerDownEnergy            0                       # Energy for precharge power-down per rank (pJ)
system.mem_ctrls.dram.rank1.selfRefreshEnergy            0                       # Energy for self refresh per rank (pJ)
system.mem_ctrls.dram.rank1.totalEnergy      25852590                       # Total energy per rank (pJ)
system.mem_ctrls.dram.rank1.averagePower   599.466447                       # Core power per rank (mW)
system.mem_ctrls.dram.rank1.totalIdleTime            0                       # Total Idle time Per DRAM Rank
system.mem_ctrls.dram.rank1.pwrStateTime::IDLE       491000                       # Time in different power states
system.mem_ctrls.dram.rank1.pwrStateTime::REF      1300000                       # Time in different power states
system.mem_ctrls.dram.rank1.pwrStateTime::SREF            0                       # Time in different power states
system.mem_ctrls.dram.rank1.pwrStateTime::PRE_PDN            0                       # Time in different power states
system.mem_ctrls.dram.rank1.pwrStateTime::ACT     41335000                       # Time in different power states
system.mem_ctrls.dram.rank1.pwrStateTime::ACT_PDN            0                       # Time in different power states
system.mem_ctrls.power_state.pwrStateResidencyTicks::UNDEFINED     43126000                       # Cumulative time (in ticks) in various power states
system.membus.trans_dist::ReadResp                553                       # Transaction distribution
system.membus.trans_dist::WritebackClean          118                       # Transaction distribution
system.membus.trans_dist::ReadExReq                70                       # Transaction distribution
system.membus.trans_dist::ReadExResp               70                       # Transaction distribution
system.membus.trans_dist::ReadCleanReq            445                       # Transaction distribution
system.membus.trans_dist::ReadSharedReq           108                       # Transaction distribution
system.membus.pkt_count_system.cpu.icache.mem_side_port::system.mem_ctrls.port         1008                       # Packet count per connected requestor and responder (bytes)
system.membus.pkt_count_system.cpu.dcache.mem_side_port::system.mem_ctrls.port          356                       # Packet count per connected requestor and responder (bytes)
system.membus.pkt_count::total                   1364                       # Packet count per connected requestor and responder (bytes)
system.membus.pkt_size_system.cpu.icache.mem_side_port::system.mem_ctrls.port        36032                       # Cumulative packet size per connected requestor and responder (bytes)
system.membus.pkt_size_system.cpu.dcache.mem_side_port::system.mem_ctrls.port        11392                       # Cumulative packet size per connected requestor and responder (bytes)
system.membus.pkt_size::total                   47424                       # Cumulative packet size per connected requestor and responder (bytes)
system.membus.snoops                                0                       # Total snoops (count)
system.membus.snoopTraffic                          0                       # Total snoop traffic (bytes)
system.membus.snoop_fanout::samples               623                       # Request fanout histogram
system.membus.snoop_fanout::mean             0.044944                       # Request fanout histogram
system.membus.snoop_fanout::stdev            0.207347                       # Request fanout histogram
system.membus.snoop_fanout::underflows              0      0.00%      0.00% # Request fanout histogram
system.membus.snoop_fanout::0                     595     95.51%     95.51% # Request fanout histogram
system.membus.snoop_fanout::1                      28      4.49%    100.00% # Request fanout histogram
system.membus.snoop_fanout::2                       0      0.00%    100.00% # Request fanout histogram
system.membus.snoop_fanout::overflows               0      0.00%    100.00% # Request fanout histogram
system.membus.snoop_fanout::min_value               0                       # Request fanout histogram
system.membus.snoop_fanout::max_value               1                       # Request fanout histogram
system.membus.snoop_fanout::total                 623                       # Request fanout histogram
system.membus.power_state.pwrStateResidencyTicks::UNDEFINED     43126000                       # Cumulative time (in ticks) in various power states
system.membus.reqLayer0.occupancy             2970000                       # Layer occupancy (ticks)
system.membus.reqLayer0.utilization               6.9                       # Layer utilization (%)
system.membus.respLayer1.occupancy            4965247                       # Layer occupancy (ticks)
system.membus.respLayer1.utilization             11.5                       # Layer utilization (%)
system.membus.respLayer2.occupancy            1982000                       # Layer occupancy (ticks)
system.membus.respLayer2.utilization              4.6                       # Layer utilization (%)
system.voltage_domain.voltage                       1                       # Voltage in Volts

---------- End Simulation Statistics   ----------
