---------- Begin Simulation Statistics ----------
final_tick                                   39764000                       # Number of ticks from beginning of simulation (restored from checkpoints and never reset)
host_inst_rate                                 133589                       # Simulator instruction rate (inst/s)
host_mem_usage                                 691120                       # Number of bytes of host memory used
host_op_rate                                   154100                       # Simulator op (including micro ops) rate (op/s)
host_seconds                                     0.09                       # Real time elapsed on the host
host_tick_rate                              465477913                       # Simulator tick rate (ticks/s)
sim_freq                                 1000000000000                       # Frequency of simulated ticks
sim_insts                                       11392                       # Number of instructions simulated
sim_ops                                         13160                       # Number of ops (including micro ops) simulated
sim_seconds                                  0.000040                       # Number of seconds simulated
sim_ticks                                    39764000                       # Number of ticks simulated
system.cpu.branchPred.BTBCorrect                    0                       # Number of correct BTB predictions (this stat may not work properly.
system.cpu.branchPred.BTBHitPct             25.676937                       # BTB Hit Percentage
system.cpu.branchPred.BTBHits                     825                       # Number of BTB hits
system.cpu.branchPred.BTBLookups                 3213                       # Number of BTB lookups
system.cpu.branchPred.RASInCorrect                  5                       # Number of incorrect RAS predictions.
system.cpu.branchPred.condIncorrect               689                       # Number of conditional branches incorrect
system.cpu.branchPred.condPredicted              2552                       # Number of conditional branches predicted
system.cpu.branchPred.indirectHits                 36                       # Number of indirect target hits.
system.cpu.branchPred.indirectLookups             203                       # Number of indirect predictor lookups.
system.cpu.branchPred.indirectMisses              167                       # Number of indirect misses.
system.cpu.branchPred.lookups                    3905                       # Number of BP lookups
system.cpu.branchPred.usedRAS                     346                       # Number of times the RAS was used to get a target.
system.cpu.branchPredindirectMispredicted           83                       # Number of mispredicted indirect branches.
system.cpu.committedInsts                       11392                       # Number of instructions committed
system.cpu.committedOps                         13160                       # Number of ops (including micro ops) committed
system.cpu.cpi                               6.981039                       # CPI: cycles per instruction
system.cpu.discardedOps                          2204                       # Number of ops (including micro ops) which were discarded before commit
system.cpu.dtb.accesses                             0                       # DTB accesses
system.cpu.dtb.align_faults                         0                       # Number of TLB faults due to alignment restrictions
system.cpu.dtb.domain_faults                        0                       # Number of TLB faults due to domain restrictions
system.cpu.dtb.flush_entries                        0                       # Number of entries that have been flushed from TLB
system.cpu.dtb.flush_tlb                            0                       # Number of times complete TLB was flushed
system.cpu.dtb.flush_tlb_asid                       0                       # Number of times TLB was flushed by ASID
system.cpu.dtb.flush_tlb_mva                        0                       # Number of times TLB was flushed by MVA
system.cpu.dtb.flush_tlb_mva_asid                   0                       # Number of times TLB was flushed by MVA & ASID
system.cpu.dtb.hits                                 0                       # DTB hits
system.cpu.dtb.inst_accesses                        0                       # ITB inst accesses
system.cpu.dtb.inst_hits                            0                       # ITB inst hits
system.cpu.dtb.inst_misses                          0                       # ITB inst misses
system.cpu.dtb.misses                               0                       # DTB misses
system.cpu.dtb.perms_faults                         0                       # Number of TLB faults due to permissions restrictions
system.cpu.dtb.prefetch_faults                      0                       # Number of TLB faults due to prefetch
system.cpu.dtb.read_accesses                        0                       # DTB read accesses
system.cpu.dtb.read_hits                            0                       # DTB read hits
system.cpu.dtb.read_misses                          0                       # DTB read misses
system.cpu.dtb.stage2_mmu.stage2_tlb.accesses            0                       # DTB accesses
system.cpu.dtb.stage2_mmu.stage2_tlb.align_faults            0                       # Number of TLB faults due to alignment restrictions
system.cpu.dtb.stage2_mmu.stage2_tlb.domain_faults            0                       # Number of TLB faults due to domain restrictions
system.cpu.dtb.stage2_mmu.stage2_tlb.flush_entries            0                       # Number of entries that have been flushed from TLB
system.cpu.dtb.stage2_mmu.stage2_tlb.flush_tlb            0                       # Number of times complete TLB was flushed
system.cpu.dtb.stage2_mmu.stage2_tlb.flush_tlb_asid            0                       # Number of times TLB was flushed by ASID
system.cpu.dtb.stage2_mmu.stage2_tlb.flush_tlb_mva            0                       # Number of times TLB was flushed by MVA
system.cpu.dtb.stage2_mmu.stage2_tlb.flush_tlb_mva_asid            0                       # Number of times TLB was flushed by MVA & ASID
system.cpu.dtb.stage2_mmu.stage2_tlb.hits            0                       # DTB hits
system.cpu.dtb.stage2_mmu.stage2_tlb.inst_accesses            0                       # ITB inst accesses
system.cpu.dtb.stage2_mmu.stage2_tlb.inst_hits            0                       # ITB inst hits
system.cpu.dtb.stage2_mmu.stage2_tlb.inst_misses            0                       # ITB inst misses
system.cpu.dtb.stage2_mmu.stage2_tlb.misses            0                       # DTB misses
system.cpu.dtb.stage2_mmu.stage2_tlb.perms_faults            0                       # Number of TLB faults due to permissions restrictions
system.cpu.dtb.stage2_mmu.stage2_tlb.prefetch_faults            0                       # Number of TLB faults due to prefetch
system.cpu.dtb.stage2_mmu.stage2_tlb.read_accesses            0                       # DTB read accesses
system.cpu.dtb.stage2_mmu.stage2_tlb.read_hits            0                       # DTB read hits
system.cpu.dtb.stage2_mmu.stage2_tlb.read_misses            0                       # DTB read misses
system.cpu.dtb.stage2_mmu.stage2_tlb.walker.walkRequestOrigin_Requested::Data            0                       # Table walker requests started/completed, data/inst
system.cpu.dtb.stage2_mmu.stage2_tlb.walker.walkRequestOrigin_Requested::Inst            0                       # Table walker requests started/completed, data/inst
system.cpu.dtb.stage2_mmu.stage2_tlb.walker.walkRequestOrigin_Requested::total            0                       # Table walker requests started/completed, data/inst
system.cpu.dtb.stage2_mmu.stage2_tlb.walker.walkRequestOrigin_Completed::Data            0                       # Table walker requests started/completed, data/inst
system.cpu.dtb.stage2_mmu.stage2_tlb.walker.walkRequestOrigin_Completed::Inst            0                       # Table walker requests started/completed, data/inst
system.cpu.dtb.stage2_mmu.stage2_tlb.walker.walkRequestOrigin_Completed::total            0                       # Table walker requests started/completed, data/inst
system.cpu.dtb.stage2_mmu.stage2_tlb.walker.walkRequestOrigin::total            0                       # Table walker requests started/completed, data/inst
system.cpu.dtb.stage2_mmu.stage2_tlb.walker.walks            0                       # Table walker walks requested
system.cpu.dtb.stage2_mmu.stage2_tlb.write_accesses            0                       # DTB write accesses
system.cpu.dtb.stage2_mmu.stage2_tlb.write_hits            0                       # DTB write hits
system.cpu.dtb.stage2_mmu.stage2_tlb.write_misses            0                       # DTB write misses
system.cpu.dtb.walker.walkRequestOrigin_Requested::Data            0                       # Table walker requests started/completed, data/inst
system.cpu.dtb.walker.walkRequestOrigin_Requested::Inst            0                       # Table walker requests started/completed, data/inst
system.cpu.dtb.walker.walkRequestOrigin_Requested::total            0                       # Table walker requests started/completed, data/inst
system.cpu.dtb.walker.walkRequestOrigin_Completed::Data            0                       # Table walker requests started/completed, data/inst
system.cpu.dtb.walker.walkRequestOrigin_Completed::Inst            0                       # Table walker requests started/completed, data/inst
system.cpu.dtb.walker.walkRequestOrigin_Completed::total            0                       # Table walker requests started/completed, data/inst
system.cpu.dtb.walker.walkRequestOrigin::total            0                       # Table walker requests started/completed, data/inst
system.cpu.dtb.walker.walks                         0                       # Table walker walks requested
system.cpu.dtb.write_accesses                       0                       # DTB write accesses
system.cpu.dtb.write_hits                           0                       # DTB write hits
system.cpu.dtb.write_misses                         0                       # DTB write misses
system.cpu.fetch2.amo_instructions                  0                       # Number of memory atomic instructions successfully decoded
system.cpu.fetch2.fp_instructions                   0                       # Number of floating point instructions successfully decoded
system.cpu.fetch2.int_instructions              11427                       # Number of integer instructions successfully decoded
system.cpu.fetch2.load_instructions              2732                       # Number of memory load instructions successfully decoded
system.cpu.fetch2.store_instructions             1572                       # Number of memory store instructions successfully decoded
system.cpu.fetch2.vec_instructions                  0                       # Number of SIMD instructions successfully decoded
system.cpu.idleCycles                           57715                       # Total number of cycles that the object has spent stopped
system.cpu.ipc                               0.143245                       # IPC: instructions per cycle
system.cpu.itb.accesses                             0                       # DTB accesses
system.cpu.itb.align_faults                         0                       # Number of TLB faults due to alignment restrictions
system.cpu.itb.domain_faults                        0                       # Number of TLB faults due to domain restrictions
system.cpu.itb.flush_entries                        0                       # Number of entries that have been flushed from TLB
system.cpu.itb.flush_tlb                            0                       # Number of times complete TLB was flushed
system.cpu.itb.flush_tlb_asid                       0                       # Number of times TLB was flushed by ASID
system.cpu.itb.flush_tlb_mva                        0                       # Number of times TLB was flushed by MVA
system.cpu.itb.flush_tlb_mva_asid                   0                       # Number of times TLB was flushed by MVA & ASID
system.cpu.itb.hits                                 0                       # DTB hits
system.cpu.itb.inst_accesses                        0                       # ITB inst accesses
system.cpu.itb.inst_hits                            0                       # ITB inst hits
system.cpu.itb.inst_misses                          0                       # ITB inst misses
system.cpu.itb.misses                               0                       # DTB misses
system.cpu.itb.perms_faults                         0                       # Number of TLB faults due to permissions restrictions
system.cpu.itb.prefetch_faults                      0                       # Number of TLB faults due to prefetch
system.cpu.itb.read_accesses                        0                       # DTB read accesses
system.cpu.itb.read_hits                            0                       # DTB read hits
system.cpu.itb.read_misses                          0                       # DTB read misses
system.cpu.itb.stage2_mmu.stage2_tlb.accesses            0                       # DTB accesses
system.cpu.itb.stage2_mmu.stage2_tlb.align_faults            0                       # Number of TLB faults due to alignment restrictions
system.cpu.itb.stage2_mmu.stage2_tlb.domain_faults            0                       # Number of TLB faults due to domain restrictions
system.cpu.itb.stage2_mmu.stage2_tlb.flush_entries            0                       # Number of entries that have been flushed from TLB
system.cpu.itb.stage2_mmu.stage2_tlb.flush_tlb            0                       # Number of times complete TLB was flushed
system.cpu.itb.stage2_mmu.stage2_tlb.flush_tlb_asid            0                       # Number of times TLB was flushed by ASID
system.cpu.itb.stage2_mmu.stage2_tlb.flush_tlb_mva            0                       # Number of times TLB was flushed by MVA
system.cpu.itb.stage2_mmu.stage2_tlb.flush_tlb_mva_asid            0                       # Number of times TLB was flushed by MVA & ASID
system.cpu.itb.stage2_mmu.stage2_tlb.hits            0                       # DTB hits
system.cpu.itb.stage2_mmu.stage2_tlb.inst_accesses            0                       # ITB inst accesses
system.cpu.itb.stage2_mmu.stage2_tlb.inst_hits            0                       # ITB inst hits
system.cpu.itb.stage2_mmu.stage2_tlb.inst_misses            0                       # ITB inst misses
system.cpu.itb.stage2_mmu.stage2_tlb.misses            0                       # DTB misses
system.cpu.itb.stage2_mmu.stage2_tlb.perms_faults            0                       # Number of TLB faults due to permissions restrictions
system.cpu.itb.stage2_mmu.stage2_tlb.prefetch_faults            0                       # Number of TLB faults due to prefetch
system.cpu.itb.stage2_mmu.stage2_tlb.read_accesses            0                       # DTB read accesses
system.cpu.itb.stage2_mmu.stage2_tlb.read_hits            0                       # DTB read hits
system.cpu.itb.stage2_mmu.stage2_tlb.read_misses            0                       # DTB read misses
system.cpu.itb.stage2_mmu.stage2_tlb.walker.walkRequestOrigin_Requested::Data            0                       # Table walker requests started/completed, data/inst
system.cpu.itb.stage2_mmu.stage2_tlb.walker.walkRequestOrigin_Requested::Inst            0                       # Table walker requests started/completed, data/inst
system.cpu.itb.stage2_mmu.stage2_tlb.walker.walkRequestOrigin_Requested::total            0                       # Table walker requests started/completed, data/inst
system.cpu.itb.stage2_mmu.stage2_tlb.walker.walkRequestOrigin_Completed::Data            0                       # Table walker requests started/completed, data/inst
system.cpu.itb.stage2_mmu.stage2_tlb.walker.walkRequestOrigin_Completed::Inst            0                       # Table walker requests started/completed, data/inst
system.cpu.itb.stage2_mmu.stage2_tlb.walker.walkRequestOrigin_Completed::total            0                       # Table walker requests started/completed, data/inst
system.cpu.itb.stage2_mmu.stage2_tlb.walker.walkRequestOrigin::total            0                       # Table walker requests started/completed, data/inst
system.cpu.itb.stage2_mmu.stage2_tlb.walker.walks            0                       # Table walker walks requested
system.cpu.itb.stage2_mmu.stage2_tlb.write_accesses            0                       # DTB write accesses
system.cpu.itb.stage2_mmu.stage2_tlb.write_hits            0                       # DTB write hits
system.cpu.itb.stage2_mmu.stage2_tlb.write_misses            0                       # DTB write misses
system.cpu.itb.walker.walkRequestOrigin_Requested::Data            0                       # Table walker requests started/completed, data/inst
system.cpu.itb.walker.walkRequestOrigin_Requested::Inst            0                       # Table walker requests started/completed, data/inst
system.cpu.itb.walker.walkRequestOrigin_Requested::total            0                       # Table walker requests started/completed, data/inst
system.cpu.itb.walker.walkRequestOrigin_Completed::Data            0                       # Table walker requests started/completed, data/inst
system.cpu.itb.walker.walkRequestOrigin_Completed::Inst            0                       # Table walker requests started/completed, data/inst
system.cpu.itb.walker.walkRequestOrigin_Completed::total            0                       # Table walker requests started/completed, data/inst
system.cpu.itb.walker.walkRequestOrigin::total            0                       # Table walker requests started/completed, data/inst
system.cpu.itb.walker.walks                         0                       # Table walker walks requested
system.cpu.itb.write_accesses                       0                       # DTB write accesses
system.cpu.itb.write_hits                           0                       # DTB write hits
system.cpu.itb.write_misses                         0                       # DTB write misses
system.cpu.numCycles                            79528                       # number of cpu cycles simulated
system.cpu.numFetchSuspends                         0                       # Number of times Execute suspended instruction fetching
system.cpu.numWorkItemsCompleted                    0                       # number of work items this cpu completed
system.cpu.numWorkItemsStarted                      0                       # number of work items this cpu started
system.cpu.op_class_0::No_OpClass                   0      0.00%      0.00% # Class of committed instruction
system.cpu.op_class_0::IntAlu                    9043     68.72%     68.72% # Class of committed instruction
system.cpu.op_class_0::IntMult                     79      0.60%     69.32% # Class of committed instruction
system.cpu.op_class_0::IntDiv                       0      0.00%     69.32% # Class of committed instruction
system.cpu.op_class_0::FloatAdd                     0      0.00%     69.32% # Class of committed instruction
system.cpu.op_class_0::FloatCmp                     0      0.00%     69.32% # Class of committed instruction
system.cpu.op_class_0::FloatCvt                     0      0.00%     69.32% # Class of committed instruction
system.cpu.op_class_0::FloatMult                    0      0.00%     69.32% # Class of committed instruction
system.cpu.op_class_0::FloatMultAcc                 0      0.00%     69.32% # Class of committed instruction
system.cpu.op_class_0::FloatDiv                     0      0.00%     69.32% # Class of committed instruction
system.cpu.op_class_0::FloatMisc                    0      0.00%     69.32% # Class of committed instruction
system.cpu.op_class_0::FloatSqrt                    0      0.00%     69.32% # Class of committed instruction
system.cpu.op_class_0::SimdAdd                      0      0.00%     69.32% # Class of committed instruction
system.cpu.op_class_0::SimdAddAcc                   0      0.00%     69.32% # Class of committed instruction
system.cpu.op_class_0::SimdAlu                      0      0.00%     69.32% # Class of committed instruction
system.cpu.op_class_0::SimdCmp                      0      0.00%     69.32% # Class of committed instruction
system.cpu.op_class_0::SimdCvt                      0      0.00%     69.32% # Class of committed instruction
system.cpu.op_class_0::SimdMisc                     0      0.00%     69.32% # Class of committed instruction
system.cpu.op_class_0::SimdMult                     0      0.00%     69.32% # Class of committed instruction
system.cpu.op_class_0::SimdMultAcc                  0      0.00%     69.32% # Class of committed instruction
system.cpu.op_class_0::SimdShift                    0      0.00%     69.32% # Class of committed instruction
system.cpu.op_class_0::SimdShiftAcc                 0      0.00%     69.32% # Class of committed instruction
system.cpu.op_class_0::SimdDiv                      0      0.00%     69.32% # Class of committed instruction
system.cpu.op_class_0::SimdSqrt                     0      0.00%     69.32% # Class of committed instruction
system.cpu.op_class_0::SimdFloatAdd                 0      0.00%     69.32% # Class of committed instruction
system.cpu.op_class_0::SimdFloatAlu                 0      0.00%     69.32% # Class of committed instruction
system.cpu.op_class_0::SimdFloatCmp                 0      0.00%     69.32% # Class of committed instruction
system.cpu.op_class_0::SimdFloatCvt                 0      0.00%     69.32% # Class of committed instruction
system.cpu.op_class_0::SimdFloatDiv                 0      0.00%     69.32% # Class of committed instruction
system.cpu.op_class_0::SimdFloatMisc               21      0.16%     69.48% # Class of committed instruction
system.cpu.op_class_0::SimdFloatMult                0      0.00%     69.48% # Class of committed instruction
system.cpu.op_class_0::SimdFloatMultAcc             0      0.00%     69.48% # Class of committed instruction
system.cpu.op_class_0::SimdFloatSqrt                0      0.00%     69.48% # Class of committed instruction
system.cpu.op_class_0::SimdReduceAdd                0      0.00%     69.48% # Class of committed instruction
system.cpu.op_class_0::SimdReduceAlu                0      0.00%     69.48% # Class of committed instruction
system.cpu.op_class_0::SimdReduceCmp                0      0.00%     69.48% # Class of committed instruction
system.cpu.op_class_0::SimdFloatReduceAdd            0      0.00%     69.48% # Class of committed instruction
system.cpu.op_class_0::SimdFloatReduceCmp            0      0.00%     69.48% # Class of committed instruction
system.cpu.op_class_0::SimdAes                      0      0.00%     69.48% # Class of committed instruction
system.cpu.op_class_0::SimdAesMix                   0      0.00%     69.48% # Class of committed instruction
system.cpu.op_class_0::SimdSha1Hash                 0      0.00%     69.48% # Class of committed instruction
system.cpu.op_class_0::SimdSha1Hash2                0      0.00%     69.48% # Class of committed instruction
system.cpu.op_class_0::SimdSha256Hash               0      0.00%     69.48% # Class of committed instruction
system.cpu.op_class_0::SimdSha256Hash2              0      0.00%     69.48% # Class of committed instruction
system.cpu.op_class_0::SimdShaSigma2                0      0.00%     69.48% # Class of committed instruction
system.cpu.op_class_0::SimdShaSigma3                0      0.00%     69.48% # Class of committed instruction
system.cpu.op_class_0::SimdPredAlu                  0      0.00%     69.48% # Class of committed instruction
system.cpu.op_class_0::MemRead                   1984     15.08%     84.55% # Class of committed instruction
system.cpu.op_class_0::MemWrite                  2033     15.45%    100.00% # Class of committed instruction
system.cpu.op_class_0::FloatMemRead                 0      0.00%    100.00% # Class of committed instruction
system.cpu.op_class_0::FloatMemWrite                0      0.00%    100.00% # Class of committed instruction
system.cpu.op_class_0::IprAccess                    0      0.00%    100.00% # Class of committed instruction
system.cpu.op_class_0::InstPrefetch                 0      0.00%    100.00% # Class of committed instruction
system.cpu.op_class_0::total                    13160                       # Class of committed instruction
system.cpu.tickCycles                           21813                       # Number of cycles that the object actually ticked
system.cpu.workload.numSyscalls                    13                       # Number of system calls
system.membus.snoop_filter.hit_multi_requests            8                       # Number of requests hitting in the snoop filter with multiple (>1) holders of the requested data.
system.membus.snoop_filter.hit_multi_snoops            0                       # Number of snoops hitting in the snoop filter with multiple (>1) holders of the requested data.
system.membus.snoop_filter.hit_single_requests          163                       # Number of requests hitting in the snoop filter with a single holder of the requested data.
system.membus.snoop_filter.hit_single_snoops            0                       # Number of snoops hitting in the snoop filter with a single holder of the requested data.
system.membus.snoop_filter.tot_requests           826                       # Total number of requests made to the snoop filter.
system.membus.snoop_filter.tot_snoops               0                       # Total number of snoops made to the snoop filter.
system.membus.pwrStateResidencyTicks::UNDEFINED     39764000                       # Cumulative time (in ticks) in various power states
system.membus.trans_dist::ReadResp                610                       # Transaction distribution
system.membus.trans_dist::WritebackClean          140                       # Transaction distribution
system.membus.trans_dist::ReadExReq                76                       # Transaction distribution
system.membus.trans_dist::ReadExResp               76                       # Transaction distribution
system.membus.trans_dist::ReadCleanReq            490                       # Transaction distribution
system.membus.trans_dist::ReadSharedReq           120                       # Transaction distribution
system.membus.pkt_count_system.cpu.icache.mem_side::system.mem_ctrls.port         1120                       # Packet count per connected master and slave (bytes)
system.membus.pkt_count_system.cpu.dcache.mem_side::system.mem_ctrls.port          392                       # Packet count per connected master and slave (bytes)
system.membus.pkt_count::total                   1512                       # Packet count per connected master and slave (bytes)
system.membus.pkt_size_system.cpu.icache.mem_side::system.mem_ctrls.port        40320                       # Cumulative packet size per connected master and slave (bytes)
system.membus.pkt_size_system.cpu.dcache.mem_side::system.mem_ctrls.port        12544                       # Cumulative packet size per connected master and slave (bytes)
system.membus.pkt_size::total                   52864                       # Cumulative packet size per connected master and slave (bytes)
system.membus.snoops                                0                       # Total snoops (count)
system.membus.snoopTraffic                          0                       # Total snoop traffic (bytes)
system.membus.snoop_fanout::samples               686                       # Request fanout histogram
system.membus.snoop_fanout::mean             0.045190                       # Request fanout histogram
system.membus.snoop_fanout::stdev            0.207871                       # Request fanout histogram
system.membus.snoop_fanout::underflows              0      0.00%      0.00% # Request fanout histogram
system.membus.snoop_fanout::0                     655     95.48%     95.48% # Request fanout histogram
system.membus.snoop_fanout::1                      31      4.52%    100.00% # Request fanout histogram
system.membus.snoop_fanout::2                       0      0.00%    100.00% # Request fanout histogram
system.membus.snoop_fanout::overflows               0      0.00%    100.00% # Request fanout histogram
system.membus.snoop_fanout::min_value               0                       # Request fanout histogram
system.membus.snoop_fanout::max_value               1                       # Request fanout histogram
system.membus.snoop_fanout::total                 686                       # Request fanout histogram
system.membus.reqLayer0.occupancy             1488500                       # Layer occupancy (ticks)
system.membus.reqLayer0.utilization               3.7                       # Layer utilization (%)
system.membus.respLayer1.occupancy            2668166                       # Layer occupancy (ticks)
system.membus.respLayer1.utilization              6.7                       # Layer utilization (%)
system.membus.respLayer2.occupancy            1060006                       # Layer occupancy (ticks)
system.membus.respLayer2.utilization              2.7                       # Layer utilization (%)
system.voltage_domain.voltage                       1                       # Voltage in Volts
system.clk_domain.clock                          1000                       # Clock period in ticks
system.cpu_voltage_domain.voltage                   1                       # Voltage in Volts
system.mem_ctrls.pwrStateResidencyTicks::UNDEFINED     39764000                       # Cumulative time (in ticks) in various power states
system.mem_ctrls.bytes_read::.cpu.inst          31360                       # Number of bytes read from this memory
system.mem_ctrls.bytes_read::.cpu.data          12544                       # Number of bytes read from this memory
system.mem_ctrls.bytes_read::total              43904                       # Number of bytes read from this memory
system.mem_ctrls.bytes_inst_read::.cpu.inst        31360                       # Number of instructions bytes read from this memory
system.mem_ctrls.bytes_inst_read::total         31360                       # Number of instructions bytes read from this memory
system.mem_ctrls.num_reads::.cpu.inst             490                       # Number of read requests responded to by this memory
system.mem_ctrls.num_reads::.cpu.data             196                       # Number of read requests responded to by this memory
system.mem_ctrls.num_reads::total                 686                       # Number of read requests responded to by this memory
system.mem_ctrls.bw_read::.cpu.inst         788653053                       # Total read bandwidth from this memory (bytes/s)
system.mem_ctrls.bw_read::.cpu.data         315461221                       # Total read bandwidth from this memory (bytes/s)
system.mem_ctrls.bw_read::total            1104114274                       # Total read bandwidth from this memory (bytes/s)
system.mem_ctrls.bw_inst_read::.cpu.inst    788653053                       # Instruction read bandwidth from this memory (bytes/s)
system.mem_ctrls.bw_inst_read::total        788653053                       # Instruction read bandwidth from this memory (bytes/s)
system.mem_ctrls.bw_total::.cpu.inst        788653053                       # Total bandwidth to/from this memory (bytes/s)
system.mem_ctrls.bw_total::.cpu.data        315461221                       # Total bandwidth to/from this memory (bytes/s)
system.mem_ctrls.bw_total::total           1104114274                       # Total bandwidth to/from this memory (bytes/s)
system.mem_ctrls.avgPriority_.writebacks::samples       115.00                       # Average QoS priority value for accepted requests
system.mem_ctrls.avgPriority_.cpu.inst::samples       456.00                       # Average QoS priority value for accepted requests
system.mem_ctrls.avgPriority_.cpu.data::samples       196.00                       # Average QoS priority value for accepted requests
system.mem_ctrls.priorityMinLatency      0.000000017492                       # per QoS priority minimum request to response latency (s)
system.mem_ctrls.priorityMaxLatency      0.000059839652                       # per QoS priority maximum request to response latency (s)
system.mem_ctrls.numReadWriteTurnArounds            3                       # Number of turnarounds from READ to WRITE
system.mem_ctrls.numWriteReadTurnArounds            3                       # Number of turnarounds from WRITE to READ
system.mem_ctrls.numStayReadState                1440                       # Number of times bus staying in READ state
system.mem_ctrls.numStayWriteState                 48                       # Number of times bus staying in WRITE state
system.mem_ctrls.readReqs                         686                       # Number of read requests accepted
system.mem_ctrls.writeReqs                        132                       # Number of write requests accepted
system.mem_ctrls.readBursts                       686                       # Number of DRAM read bursts, including those serviced by the write queue
system.mem_ctrls.writeBursts                      132                       # Number of DRAM write bursts, including those merged in the write queue
system.mem_ctrls.servicedByWrQ                     34                       # Number of DRAM read bursts serviced by the write queue
system.mem_ctrls.mergedWrBursts                    17                       # Number of DRAM write bursts merged with an existing one
system.mem_ctrls.neitherReadNorWriteReqs            0                       # Number of requests that are neither read nor write
system.mem_ctrls.perBankRdBursts::0                51                       # Per bank write bursts
system.mem_ctrls.perBankRdBursts::1                14                       # Per bank write bursts
system.mem_ctrls.perBankRdBursts::2                78                       # Per bank write bursts
system.mem_ctrls.perBankRdBursts::3                 5                       # Per bank write bursts
system.mem_ctrls.perBankRdBursts::4                 1                       # Per bank write bursts
system.mem_ctrls.perBankRdBursts::5                46                       # Per bank write bursts
system.mem_ctrls.perBankRdBursts::6                 1                       # Per bank write bursts
system.mem_ctrls.perBankRdBursts::7                37                       # Per bank write bursts
system.mem_ctrls.perBankRdBursts::8                40                       # Per bank write bursts
system.mem_ctrls.perBankRdBursts::9                43                       # Per bank write bursts
system.mem_ctrls.perBankRdBursts::10               33                       # Per bank write bursts
system.mem_ctrls.perBankRdBursts::11               28                       # Per bank write bursts
system.mem_ctrls.perBankRdBursts::12               16                       # Per bank write bursts
system.mem_ctrls.perBankRdBursts::13              110                       # Per bank write bursts
system.mem_ctrls.perBankRdBursts::14               51                       # Per bank write bursts
system.mem_ctrls.perBankRdBursts::15               16                       # Per bank write bursts
system.mem_ctrls.perBankRdBursts::16                8                       # Per bank write bursts
system.mem_ctrls.perBankRdBursts::17                1                       # Per bank write bursts
system.mem_ctrls.perBankRdBursts::18                8                       # Per bank write bursts
system.mem_ctrls.perBankRdBursts::19                0                       # Per bank write bursts
system.mem_ctrls.perBankRdBursts::20                0                       # Per bank write bursts
system.mem_ctrls.perBankRdBursts::21                5                       # Per bank write bursts
system.mem_ctrls.perBankRdBursts::22                0                       # Per bank write bursts
system.mem_ctrls.perBankRdBursts::23                0                       # Per bank write bursts
system.mem_ctrls.perBankRdBursts::24                0                       # Per bank write bursts
system.mem_ctrls.perBankRdBursts::25               13                       # Per bank write bursts
system.mem_ctrls.perBankRdBursts::26                6                       # Per bank write bursts
system.mem_ctrls.perBankRdBursts::27                7                       # Per bank write bursts
system.mem_ctrls.perBankRdBursts::28               17                       # Per bank write bursts
system.mem_ctrls.perBankRdBursts::29               10                       # Per bank write bursts
system.mem_ctrls.perBankRdBursts::30                7                       # Per bank write bursts
system.mem_ctrls.perBankRdBursts::31                0                       # Per bank write bursts
system.mem_ctrls.perBankWrBursts::0                10                       # Per bank write bursts
system.mem_ctrls.perBankWrBursts::1                 0                       # Per bank write bursts
system.mem_ctrls.perBankWrBursts::2                 2                       # Per bank write bursts
system.mem_ctrls.perBankWrBursts::3                 0                       # Per bank write bursts
system.mem_ctrls.perBankWrBursts::4                 0                       # Per bank write bursts
system.mem_ctrls.perBankWrBursts::5                 1                       # Per bank write bursts
system.mem_ctrls.perBankWrBursts::6                 0                       # Per bank write bursts
system.mem_ctrls.perBankWrBursts::7                 0                       # Per bank write bursts
system.mem_ctrls.perBankWrBursts::8                 0                       # Per bank write bursts
system.mem_ctrls.perBankWrBursts::9                 0                       # Per bank write bursts
system.mem_ctrls.perBankWrBursts::10                0                       # Per bank write bursts
system.mem_ctrls.perBankWrBursts::11                6                       # Per bank write bursts
system.mem_ctrls.perBankWrBursts::12                0                       # Per bank write bursts
system.mem_ctrls.perBankWrBursts::13               16                       # Per bank write bursts
system.mem_ctrls.perBankWrBursts::14                0                       # Per bank write bursts
system.mem_ctrls.perBankWrBursts::15                0                       # Per bank write bursts
system.mem_ctrls.perBankWrBursts::16                0                       # Per bank write bursts
system.mem_ctrls.perBankWrBursts::17                0                       # Per bank write bursts
system.mem_ctrls.perBankWrBursts::18                0                       # Per bank write bursts
system.mem_ctrls.perBankWrBursts::19                0                       # Per bank write bursts
system.mem_ctrls.perBankWrBursts::20                0                       # Per bank write bursts
system.mem_ctrls.perBankWrBursts::21                0                       # Per bank write bursts
system.mem_ctrls.perBankWrBursts::22                0                       # Per bank write bursts
system.mem_ctrls.perBankWrBursts::23                0                       # Per bank write bursts
system.mem_ctrls.perBankWrBursts::24                0                       # Per bank write bursts
system.mem_ctrls.perBankWrBursts::25                4                       # Per bank write bursts
system.mem_ctrls.perBankWrBursts::26                3                       # Per bank write bursts
system.mem_ctrls.perBankWrBursts::27                0                       # Per bank write bursts
system.mem_ctrls.perBankWrBursts::28                0                       # Per bank write bursts
system.mem_ctrls.perBankWrBursts::29                4                       # Per bank write bursts
system.mem_ctrls.perBankWrBursts::30                5                       # Per bank write bursts
system.mem_ctrls.perBankWrBursts::31                0                       # Per bank write bursts
system.mem_ctrls.avgRdQLen                       1.16                       # Average read queue length when enqueuing
system.mem_ctrls.avgWrQLen                      26.85                       # Average write queue length when enqueuing
system.mem_ctrls.totQLat                      4342424                       # Total ticks spent queuing
system.mem_ctrls.totBusLat                    2172464                       # Total ticks spent in databus transfers
system.mem_ctrls.totMemAccLat                15747208                       # Total ticks spent from burst creation until serviced by the DRAM
system.mem_ctrls.avgQLat                      6660.16                       # Average queueing delay per DRAM burst
system.mem_ctrls.avgBusLat                    3332.00                       # Average bus latency per DRAM burst
system.mem_ctrls.avgMemAccLat                24152.16                       # Average memory access latency per DRAM burst
system.mem_ctrls.numRdRetry                         0                       # Number of times read queue was full causing retry
system.mem_ctrls.numWrRetry                         0                       # Number of times write queue was full causing retry
system.mem_ctrls.readRowHits                      528                       # Number of row buffer hits during reads
system.mem_ctrls.writeRowHits                      44                       # Number of row buffer hits during writes
system.mem_ctrls.readRowHitRate                 80.98                       # Row buffer hit rate for reads
system.mem_ctrls.writeRowHitRate                38.26                       # Row buffer hit rate for writes
system.mem_ctrls.readPktSize::0                     0                       # Read request sizes (log2)
system.mem_ctrls.readPktSize::1                     0                       # Read request sizes (log2)
system.mem_ctrls.readPktSize::2                     0                       # Read request sizes (log2)
system.mem_ctrls.readPktSize::3                     0                       # Read request sizes (log2)
system.mem_ctrls.readPktSize::4                     0                       # Read request sizes (log2)
system.mem_ctrls.readPktSize::5                     0                       # Read request sizes (log2)
system.mem_ctrls.readPktSize::6                   686                       # Read request sizes (log2)
system.mem_ctrls.writePktSize::0                    0                       # Write request sizes (log2)
system.mem_ctrls.writePktSize::1                    0                       # Write request sizes (log2)
system.mem_ctrls.writePktSize::2                    0                       # Write request sizes (log2)
system.mem_ctrls.writePktSize::3                    0                       # Write request sizes (log2)
system.mem_ctrls.writePktSize::4                    0                       # Write request sizes (log2)
system.mem_ctrls.writePktSize::5                    0                       # Write request sizes (log2)
system.mem_ctrls.writePktSize::6                  132                       # Write request sizes (log2)
system.mem_ctrls.rdQLenPdf::0                     548                       # What read queue length does an incoming req see
system.mem_ctrls.rdQLenPdf::1                      99                       # What read queue length does an incoming req see
system.mem_ctrls.rdQLenPdf::2                       5                       # What read queue length does an incoming req see
system.mem_ctrls.rdQLenPdf::3                       0                       # What read queue length does an incoming req see
system.mem_ctrls.rdQLenPdf::4                       0                       # What read queue length does an incoming req see
system.mem_ctrls.rdQLenPdf::5                       0                       # What read queue length does an incoming req see
system.mem_ctrls.rdQLenPdf::6                       0                       # What read queue length does an incoming req see
system.mem_ctrls.rdQLenPdf::7                       0                       # What read queue length does an incoming req see
system.mem_ctrls.rdQLenPdf::8                       0                       # What read queue length does an incoming req see
system.mem_ctrls.rdQLenPdf::9                       0                       # What read queue length does an incoming req see
system.mem_ctrls.rdQLenPdf::10                      0                       # What read queue length does an incoming req see
system.mem_ctrls.rdQLenPdf::11                      0                       # What read queue length does an incoming req see
system.mem_ctrls.rdQLenPdf::12                      0                       # What read queue length does an incoming req see
system.mem_ctrls.rdQLenPdf::13                      0                       # What read queue length does an incoming req see
system.mem_ctrls.rdQLenPdf::14                      0                       # What read queue length does an incoming req see
system.mem_ctrls.rdQLenPdf::15                      0                       # What read queue length does an incoming req see
system.mem_ctrls.rdQLenPdf::16                      0                       # What read queue length does an incoming req see
system.mem_ctrls.rdQLenPdf::17                      0                       # What read queue length does an incoming req see
system.mem_ctrls.rdQLenPdf::18                      0                       # What read queue length does an incoming req see
system.mem_ctrls.rdQLenPdf::19                      0                       # What read queue length does an incoming req see
system.mem_ctrls.rdQLenPdf::20                      0                       # What read queue length does an incoming req see
system.mem_ctrls.rdQLenPdf::21                      0                       # What read queue length does an incoming req see
system.mem_ctrls.rdQLenPdf::22                      0                       # What read queue length does an incoming req see
system.mem_ctrls.rdQLenPdf::23                      0                       # What read queue length does an incoming req see
system.mem_ctrls.rdQLenPdf::24                      0                       # What read queue length does an incoming req see
system.mem_ctrls.rdQLenPdf::25                      0                       # What read queue length does an incoming req see
system.mem_ctrls.rdQLenPdf::26                      0                       # What read queue length does an incoming req see
system.mem_ctrls.rdQLenPdf::27                      0                       # What read queue length does an incoming req see
system.mem_ctrls.rdQLenPdf::28                      0                       # What read queue length does an incoming req see
system.mem_ctrls.rdQLenPdf::29                      0                       # What read queue length does an incoming req see
system.mem_ctrls.rdQLenPdf::30                      0                       # What read queue length does an incoming req see
system.mem_ctrls.rdQLenPdf::31                      0                       # What read queue length does an incoming req see
system.mem_ctrls.rdQLenPdf::32                      0                       # What read queue length does an incoming req see
system.mem_ctrls.rdQLenPdf::33                      0                       # What read queue length does an incoming req see
system.mem_ctrls.rdQLenPdf::34                      0                       # What read queue length does an incoming req see
system.mem_ctrls.rdQLenPdf::35                      0                       # What read queue length does an incoming req see
system.mem_ctrls.rdQLenPdf::36                      0                       # What read queue length does an incoming req see
system.mem_ctrls.rdQLenPdf::37                      0                       # What read queue length does an incoming req see
system.mem_ctrls.rdQLenPdf::38                      0                       # What read queue length does an incoming req see
system.mem_ctrls.rdQLenPdf::39                      0                       # What read queue length does an incoming req see
system.mem_ctrls.rdQLenPdf::40                      0                       # What read queue length does an incoming req see
system.mem_ctrls.rdQLenPdf::41                      0                       # What read queue length does an incoming req see
system.mem_ctrls.rdQLenPdf::42                      0                       # What read queue length does an incoming req see
system.mem_ctrls.rdQLenPdf::43                      0                       # What read queue length does an incoming req see
system.mem_ctrls.rdQLenPdf::44                      0                       # What read queue length does an incoming req see
system.mem_ctrls.rdQLenPdf::45                      0                       # What read queue length does an incoming req see
system.mem_ctrls.rdQLenPdf::46                      0                       # What read queue length does an incoming req see
system.mem_ctrls.rdQLenPdf::47                      0                       # What read queue length does an incoming req see
system.mem_ctrls.rdQLenPdf::48                      0                       # What read queue length does an incoming req see
system.mem_ctrls.rdQLenPdf::49                      0                       # What read queue length does an incoming req see
system.mem_ctrls.rdQLenPdf::50                      0                       # What read queue length does an incoming req see
system.mem_ctrls.rdQLenPdf::51                      0                       # What read queue length does an incoming req see
system.mem_ctrls.rdQLenPdf::52                      0                       # What read queue length does an incoming req see
system.mem_ctrls.rdQLenPdf::53                      0                       # What read queue length does an incoming req see
system.mem_ctrls.rdQLenPdf::54                      0                       # What read queue length does an incoming req see
system.mem_ctrls.rdQLenPdf::55                      0                       # What read queue length does an incoming req see
system.mem_ctrls.rdQLenPdf::56                      0                       # What read queue length does an incoming req see
system.mem_ctrls.rdQLenPdf::57                      0                       # What read queue length does an incoming req see
system.mem_ctrls.rdQLenPdf::58                      0                       # What read queue length does an incoming req see
system.mem_ctrls.rdQLenPdf::59                      0                       # What read queue length does an incoming req see
system.mem_ctrls.rdQLenPdf::60                      0                       # What read queue length does an incoming req see
system.mem_ctrls.rdQLenPdf::61                      0                       # What read queue length does an incoming req see
system.mem_ctrls.rdQLenPdf::62                      0                       # What read queue length does an incoming req see
system.mem_ctrls.rdQLenPdf::63                      0                       # What read queue length does an incoming req see
system.mem_ctrls.wrQLenPdf::0                       1                       # What write queue length does an incoming req see
system.mem_ctrls.wrQLenPdf::1                       1                       # What write queue length does an incoming req see
system.mem_ctrls.wrQLenPdf::2                       1                       # What write queue length does an incoming req see
system.mem_ctrls.wrQLenPdf::3                       1                       # What write queue length does an incoming req see
system.mem_ctrls.wrQLenPdf::4                       1                       # What write queue length does an incoming req see
system.mem_ctrls.wrQLenPdf::5                       1                       # What write queue length does an incoming req see
system.mem_ctrls.wrQLenPdf::6                       1                       # What write queue length does an incoming req see
system.mem_ctrls.wrQLenPdf::7                       1                       # What write queue length does an incoming req see
system.mem_ctrls.wrQLenPdf::8                       1                       # What write queue length does an incoming req see
system.mem_ctrls.wrQLenPdf::9                       1                       # What write queue length does an incoming req see
system.mem_ctrls.wrQLenPdf::10                      1                       # What write queue length does an incoming req see
system.mem_ctrls.wrQLenPdf::11                      1                       # What write queue length does an incoming req see
system.mem_ctrls.wrQLenPdf::12                      1                       # What write queue length does an incoming req see
system.mem_ctrls.wrQLenPdf::13                      1                       # What write queue length does an incoming req see
system.mem_ctrls.wrQLenPdf::14                      1                       # What write queue length does an incoming req see
system.mem_ctrls.wrQLenPdf::15                      1                       # What write queue length does an incoming req see
system.mem_ctrls.wrQLenPdf::16                      1                       # What write queue length does an incoming req see
system.mem_ctrls.wrQLenPdf::17                      1                       # What write queue length does an incoming req see
system.mem_ctrls.wrQLenPdf::18                      1                       # What write queue length does an incoming req see
system.mem_ctrls.wrQLenPdf::19                      1                       # What write queue length does an incoming req see
system.mem_ctrls.wrQLenPdf::20                      1                       # What write queue length does an incoming req see
system.mem_ctrls.wrQLenPdf::21                      1                       # What write queue length does an incoming req see
system.mem_ctrls.wrQLenPdf::22                      1                       # What write queue length does an incoming req see
system.mem_ctrls.wrQLenPdf::23                      1                       # What write queue length does an incoming req see
system.mem_ctrls.wrQLenPdf::24                      1                       # What write queue length does an incoming req see
system.mem_ctrls.wrQLenPdf::25                      1                       # What write queue length does an incoming req see
system.mem_ctrls.wrQLenPdf::26                      1                       # What write queue length does an incoming req see
system.mem_ctrls.wrQLenPdf::27                      1                       # What write queue length does an incoming req see
system.mem_ctrls.wrQLenPdf::28                      1                       # What write queue length does an incoming req see
system.mem_ctrls.wrQLenPdf::29                      1                       # What write queue length does an incoming req see
system.mem_ctrls.wrQLenPdf::30                      1                       # What write queue length does an incoming req see
system.mem_ctrls.wrQLenPdf::31                      1                       # What write queue length does an incoming req see
system.mem_ctrls.wrQLenPdf::32                      1                       # What write queue length does an incoming req see
system.mem_ctrls.wrQLenPdf::33                      1                       # What write queue length does an incoming req see
system.mem_ctrls.wrQLenPdf::34                      1                       # What write queue length does an incoming req see
system.mem_ctrls.wrQLenPdf::35                      1                       # What write queue length does an incoming req see
system.mem_ctrls.wrQLenPdf::36                      1                       # What write queue length does an incoming req see
system.mem_ctrls.wrQLenPdf::37                      1                       # What write queue length does an incoming req see
system.mem_ctrls.wrQLenPdf::38                      1                       # What write queue length does an incoming req see
system.mem_ctrls.wrQLenPdf::39                      1                       # What write queue length does an incoming req see
system.mem_ctrls.wrQLenPdf::40                      1                       # What write queue length does an incoming req see
system.mem_ctrls.wrQLenPdf::41                      1                       # What write queue length does an incoming req see
system.mem_ctrls.wrQLenPdf::42                      1                       # What write queue length does an incoming req see
system.mem_ctrls.wrQLenPdf::43                      1                       # What write queue length does an incoming req see
system.mem_ctrls.wrQLenPdf::44                      1                       # What write queue length does an incoming req see
system.mem_ctrls.wrQLenPdf::45                      1                       # What write queue length does an incoming req see
system.mem_ctrls.wrQLenPdf::46                      1                       # What write queue length does an incoming req see
system.mem_ctrls.wrQLenPdf::47                      2                       # What write queue length does an incoming req see
system.mem_ctrls.wrQLenPdf::48                      3                       # What write queue length does an incoming req see
system.mem_ctrls.wrQLenPdf::49                      4                       # What write queue length does an incoming req see
system.mem_ctrls.wrQLenPdf::50                      4                       # What write queue length does an incoming req see
system.mem_ctrls.wrQLenPdf::51                      4                       # What write queue length does an incoming req see
system.mem_ctrls.wrQLenPdf::52                      4                       # What write queue length does an incoming req see
system.mem_ctrls.wrQLenPdf::53                      4                       # What write queue length does an incoming req see
system.mem_ctrls.wrQLenPdf::54                      4                       # What write queue length does an incoming req see
system.mem_ctrls.wrQLenPdf::55                      4                       # What write queue length does an incoming req see
system.mem_ctrls.wrQLenPdf::56                      4                       # What write queue length does an incoming req see
system.mem_ctrls.wrQLenPdf::57                      4                       # What write queue length does an incoming req see
system.mem_ctrls.wrQLenPdf::58                      4                       # What write queue length does an incoming req see
system.mem_ctrls.wrQLenPdf::59                      4                       # What write queue length does an incoming req see
system.mem_ctrls.wrQLenPdf::60                      4                       # What write queue length does an incoming req see
system.mem_ctrls.wrQLenPdf::61                      4                       # What write queue length does an incoming req see
system.mem_ctrls.wrQLenPdf::62                      4                       # What write queue length does an incoming req see
system.mem_ctrls.wrQLenPdf::63                      4                       # What write queue length does an incoming req see
system.mem_ctrls.wrQLenPdf::64                      3                       # What write queue length does an incoming req see
system.mem_ctrls.wrQLenPdf::65                      0                       # What write queue length does an incoming req see
system.mem_ctrls.wrQLenPdf::66                      0                       # What write queue length does an incoming req see
system.mem_ctrls.wrQLenPdf::67                      0                       # What write queue length does an incoming req see
system.mem_ctrls.wrQLenPdf::68                      0                       # What write queue length does an incoming req see
system.mem_ctrls.wrQLenPdf::69                      0                       # What write queue length does an incoming req see
system.mem_ctrls.wrQLenPdf::70                      0                       # What write queue length does an incoming req see
system.mem_ctrls.wrQLenPdf::71                      0                       # What write queue length does an incoming req see
system.mem_ctrls.wrQLenPdf::72                      0                       # What write queue length does an incoming req see
system.mem_ctrls.wrQLenPdf::73                      0                       # What write queue length does an incoming req see
system.mem_ctrls.wrQLenPdf::74                      0                       # What write queue length does an incoming req see
system.mem_ctrls.wrQLenPdf::75                      0                       # What write queue length does an incoming req see
system.mem_ctrls.wrQLenPdf::76                      0                       # What write queue length does an incoming req see
system.mem_ctrls.wrQLenPdf::77                      0                       # What write queue length does an incoming req see
system.mem_ctrls.wrQLenPdf::78                      0                       # What write queue length does an incoming req see
system.mem_ctrls.wrQLenPdf::79                      0                       # What write queue length does an incoming req see
system.mem_ctrls.wrQLenPdf::80                      0                       # What write queue length does an incoming req see
system.mem_ctrls.wrQLenPdf::81                      0                       # What write queue length does an incoming req see
system.mem_ctrls.wrQLenPdf::82                      0                       # What write queue length does an incoming req see
system.mem_ctrls.wrQLenPdf::83                      0                       # What write queue length does an incoming req see
system.mem_ctrls.wrQLenPdf::84                      0                       # What write queue length does an incoming req see
system.mem_ctrls.wrQLenPdf::85                      0                       # What write queue length does an incoming req see
system.mem_ctrls.wrQLenPdf::86                      0                       # What write queue length does an incoming req see
system.mem_ctrls.wrQLenPdf::87                      0                       # What write queue length does an incoming req see
system.mem_ctrls.wrQLenPdf::88                      0                       # What write queue length does an incoming req see
system.mem_ctrls.wrQLenPdf::89                      0                       # What write queue length does an incoming req see
system.mem_ctrls.wrQLenPdf::90                      0                       # What write queue length does an incoming req see
system.mem_ctrls.wrQLenPdf::91                      0                       # What write queue length does an incoming req see
system.mem_ctrls.wrQLenPdf::92                      0                       # What write queue length does an incoming req see
system.mem_ctrls.wrQLenPdf::93                      0                       # What write queue length does an incoming req see
system.mem_ctrls.wrQLenPdf::94                      0                       # What write queue length does an incoming req see
system.mem_ctrls.wrQLenPdf::95                      0                       # What write queue length does an incoming req see
system.mem_ctrls.wrQLenPdf::96                      0                       # What write queue length does an incoming req see
system.mem_ctrls.wrQLenPdf::97                      0                       # What write queue length does an incoming req see
system.mem_ctrls.wrQLenPdf::98                      0                       # What write queue length does an incoming req see
system.mem_ctrls.wrQLenPdf::99                      0                       # What write queue length does an incoming req see
system.mem_ctrls.wrQLenPdf::100                     0                       # What write queue length does an incoming req see
system.mem_ctrls.wrQLenPdf::101                     0                       # What write queue length does an incoming req see
system.mem_ctrls.wrQLenPdf::102                     0                       # What write queue length does an incoming req see
system.mem_ctrls.wrQLenPdf::103                     0                       # What write queue length does an incoming req see
system.mem_ctrls.wrQLenPdf::104                     0                       # What write queue length does an incoming req see
system.mem_ctrls.wrQLenPdf::105                     0                       # What write queue length does an incoming req see
system.mem_ctrls.wrQLenPdf::106                     0                       # What write queue length does an incoming req see
system.mem_ctrls.wrQLenPdf::107                     0                       # What write queue length does an incoming req see
system.mem_ctrls.wrQLenPdf::108                     0                       # What write queue length does an incoming req see
system.mem_ctrls.wrQLenPdf::109                     0                       # What write queue length does an incoming req see
system.mem_ctrls.wrQLenPdf::110                     0                       # What write queue length does an incoming req see
system.mem_ctrls.wrQLenPdf::111                     0                       # What write queue length does an incoming req see
system.mem_ctrls.wrQLenPdf::112                     0                       # What write queue length does an incoming req see
system.mem_ctrls.wrQLenPdf::113                     0                       # What write queue length does an incoming req see
system.mem_ctrls.wrQLenPdf::114                     0                       # What write queue length does an incoming req see
system.mem_ctrls.wrQLenPdf::115                     0                       # What write queue length does an incoming req see
system.mem_ctrls.wrQLenPdf::116                     0                       # What write queue length does an incoming req see
system.mem_ctrls.wrQLenPdf::117                     0                       # What write queue length does an incoming req see
system.mem_ctrls.wrQLenPdf::118                     0                       # What write queue length does an incoming req see
system.mem_ctrls.wrQLenPdf::119                     0                       # What write queue length does an incoming req see
system.mem_ctrls.wrQLenPdf::120                     0                       # What write queue length does an incoming req see
system.mem_ctrls.wrQLenPdf::121                     0                       # What write queue length does an incoming req see
system.mem_ctrls.wrQLenPdf::122                     0                       # What write queue length does an incoming req see
system.mem_ctrls.wrQLenPdf::123                     0                       # What write queue length does an incoming req see
system.mem_ctrls.wrQLenPdf::124                     0                       # What write queue length does an incoming req see
system.mem_ctrls.wrQLenPdf::125                     0                       # What write queue length does an incoming req see
system.mem_ctrls.wrQLenPdf::126                     0                       # What write queue length does an incoming req see
system.mem_ctrls.wrQLenPdf::127                     0                       # What write queue length does an incoming req see
system.mem_ctrls.bytesPerActivate::samples          129                       # Bytes accessed per row activation
system.mem_ctrls.bytesPerActivate::mean    346.294574                       # Bytes accessed per row activation
system.mem_ctrls.bytesPerActivate::gmean   225.003123                       # Bytes accessed per row activation
system.mem_ctrls.bytesPerActivate::stdev   318.256491                       # Bytes accessed per row activation
system.mem_ctrls.bytesPerActivate::0-127           33     25.58%     25.58% # Bytes accessed per row activation
system.mem_ctrls.bytesPerActivate::128-255           29     22.48%     48.06% # Bytes accessed per row activation
system.mem_ctrls.bytesPerActivate::256-383           25     19.38%     67.44% # Bytes accessed per row activation
system.mem_ctrls.bytesPerActivate::384-511           12      9.30%     76.74% # Bytes accessed per row activation
system.mem_ctrls.bytesPerActivate::512-639            6      4.65%     81.40% # Bytes accessed per row activation
system.mem_ctrls.bytesPerActivate::640-767            4      3.10%     84.50% # Bytes accessed per row activation
system.mem_ctrls.bytesPerActivate::768-895            2      1.55%     86.05% # Bytes accessed per row activation
system.mem_ctrls.bytesPerActivate::896-1023            3      2.33%     88.37% # Bytes accessed per row activation
system.mem_ctrls.bytesPerActivate::1024-1151           15     11.63%    100.00% # Bytes accessed per row activation
system.mem_ctrls.bytesPerActivate::total          129                       # Bytes accessed per row activation
system.mem_ctrls.rdPerTurnAround::samples            3                       # Reads before turning the bus around for writes
system.mem_ctrls.rdPerTurnAround::mean            207                       # Reads before turning the bus around for writes
system.mem_ctrls.rdPerTurnAround::gmean     77.080593                       # Reads before turning the bus around for writes
system.mem_ctrls.rdPerTurnAround::stdev    309.171473                       # Reads before turning the bus around for writes
system.mem_ctrls.rdPerTurnAround::16-31             2     66.67%     66.67% # Reads before turning the bus around for writes
system.mem_ctrls.rdPerTurnAround::560-575            1     33.33%    100.00% # Reads before turning the bus around for writes
system.mem_ctrls.rdPerTurnAround::total             3                       # Reads before turning the bus around for writes
system.mem_ctrls.wrPerTurnAround::samples            3                       # Writes before turning the bus around for reads
system.mem_ctrls.wrPerTurnAround::mean             17                       # Writes before turning the bus around for reads
system.mem_ctrls.wrPerTurnAround::gmean     16.943294                       # Writes before turning the bus around for reads
system.mem_ctrls.wrPerTurnAround::stdev      1.732051                       # Writes before turning the bus around for reads
system.mem_ctrls.wrPerTurnAround::16                2     66.67%     66.67% # Writes before turning the bus around for reads
system.mem_ctrls.wrPerTurnAround::19                1     33.33%    100.00% # Writes before turning the bus around for reads
system.mem_ctrls.wrPerTurnAround::total             3                       # Writes before turning the bus around for reads
system.mem_ctrls.bytesReadDRAM                  41728                       # Total number of bytes read from DRAM
system.mem_ctrls.bytesReadWrQ                    2176                       # Total number of bytes read from write queue
system.mem_ctrls.bytesWritten                    3264                       # Total number of bytes written to DRAM
system.mem_ctrls.bytesReadSys                   43904                       # Total read bytes from the system interface side
system.mem_ctrls.bytesWrittenSys                 8448                       # Total written bytes from the system interface side
system.mem_ctrls.avgRdBW                      1049.39                       # Average DRAM read bandwidth in MiByte/s
system.mem_ctrls.avgWrBW                        82.08                       # Average achieved write bandwidth in MiByte/s
system.mem_ctrls.avgRdBWSys                   1104.11                       # Average system read bandwidth in MiByte/s
system.mem_ctrls.avgWrBWSys                    212.45                       # Average system write bandwidth in MiByte/s
system.mem_ctrls.peakBW                      19207.00                       # Theoretical peak bandwidth in MiByte/s
system.mem_ctrls.busUtil                         5.89                       # Data bus utilization in percentage
system.mem_ctrls.busUtilRead                     5.46                       # Data bus utilization in percentage for reads
system.mem_ctrls.busUtilWrite                    0.43                       # Data bus utilization in percentage for writes
system.mem_ctrls.totGap                      39706500                       # Total gap between requests
system.mem_ctrls.avgGap                      48540.95                       # Average gap between requests
system.mem_ctrls.masterReadBytes::.cpu.inst        29184                       # Per-master bytes read from memory
system.mem_ctrls.masterReadBytes::.cpu.data        12544                       # Per-master bytes read from memory
system.mem_ctrls.masterWriteBytes::.writebacks         3264                       # Per-master bytes write to memory
system.mem_ctrls.masterReadRate::.cpu.inst 733930188.109848141670                       # Per-master bytes read from memory rate (Bytes/sec)
system.mem_ctrls.masterReadRate::.cpu.data 315461221.205110132694                       # Per-master bytes read from memory rate (Bytes/sec)
system.mem_ctrls.masterWriteRate::.writebacks 82084297.354390904307                       # Per-master bytes write to memory rate (Bytes/sec)
system.mem_ctrls.masterReadAccesses::.cpu.inst          490                       # Per-master read serviced memory accesses
system.mem_ctrls.masterReadAccesses::.cpu.data          196                       # Per-master read serviced memory accesses
system.mem_ctrls.masterWriteAccesses::.writebacks          132                       # Per-master write serviced memory accesses
system.mem_ctrls.masterReadTotalLat::.cpu.inst     11123834                       # Per-master read total memory access latency
system.mem_ctrls.masterReadTotalLat::.cpu.data      4623374                       # Per-master read total memory access latency
system.mem_ctrls.masterWriteTotalLat::.writebacks    601258524                       # Per-master write total memory access latency
system.mem_ctrls.masterReadAvgLat::.cpu.inst     22701.70                       # Per-master read average memory access latency
system.mem_ctrls.masterReadAvgLat::.cpu.data     23588.64                       # Per-master read average memory access latency
system.mem_ctrls.masterWriteAvgLat::.writebacks   4554988.82                       # Per-master write average memory access latency
system.mem_ctrls.pageHitRate                    74.58                       # Row buffer hit rate, read and write combined
system.mem_ctrls.rank1.actEnergy         38984.400000                       # Energy for activate commands per rank (pJ)
system.mem_ctrls.rank1.preEnergy         68822.460000                       # Energy for precharge commands per rank (pJ)
system.mem_ctrls.rank1.readEnergy        224917.996800                       # Energy for read commands per rank (pJ)
system.mem_ctrls.rank1.writeEnergy       37744.896000                       # Energy for write commands per rank (pJ)
system.mem_ctrls.rank1.refreshEnergy     3379277.748000                       # Energy for refresh commands per rank (pJ)
system.mem_ctrls.rank1.actBackEnergy     15720613.238400                       # Energy for active background per rank (pJ)
system.mem_ctrls.rank1.preBackEnergy     2126189.184000                       # Energy for precharge background per rank (pJ)
system.mem_ctrls.rank1.actPowerDownEnergy            0                       # Energy for active power-down per rank (pJ)
system.mem_ctrls.rank1.prePowerDownEnergy            0                       # Energy for precharge power-down per rank (pJ)
system.mem_ctrls.rank1.selfRefreshEnergy            0                       # Energy for self refresh per rank (pJ)
system.mem_ctrls.rank1.totalEnergy       21596549.923200                       # Total energy per rank (pJ)
system.mem_ctrls.rank1.averagePower        543.118145                       # Core power per rank (mW)
system.mem_ctrls.rank1.totalIdleTime                0                       # Total Idle time Per DRAM Rank
system.mem_ctrls.rank1.memoryStateTime::IDLE      6375100                       # Time in different power states
system.mem_ctrls.rank1.memoryStateTime::REF      1750000                       # Time in different power states
system.mem_ctrls.rank1.memoryStateTime::SREF            0                       # Time in different power states
system.mem_ctrls.rank1.memoryStateTime::PRE_PDN            0                       # Time in different power states
system.mem_ctrls.rank1.memoryStateTime::ACT     31638900                       # Time in different power states
system.mem_ctrls.rank1.memoryStateTime::ACT_PDN            0                       # Time in different power states
system.mem_ctrls.rank0.actEnergy         165293.856000                       # Energy for activate commands per rank (pJ)
system.mem_ctrls.rank0.preEnergy         286301.433600                       # Energy for precharge commands per rank (pJ)
system.mem_ctrls.rank0.readEnergy        1563454.368000                       # Energy for read commands per rank (pJ)
system.mem_ctrls.rank0.writeEnergy       82566.960000                       # Energy for write commands per rank (pJ)
system.mem_ctrls.rank0.refreshEnergy     3379277.748000                       # Energy for refresh commands per rank (pJ)
system.mem_ctrls.rank0.actBackEnergy     18366446.481600                       # Energy for active background per rank (pJ)
system.mem_ctrls.rank0.preBackEnergy     299624.102400                       # Energy for precharge background per rank (pJ)
system.mem_ctrls.rank0.actPowerDownEnergy            0                       # Energy for active power-down per rank (pJ)
system.mem_ctrls.rank0.prePowerDownEnergy            0                       # Energy for precharge power-down per rank (pJ)
system.mem_ctrls.rank0.selfRefreshEnergy            0                       # Energy for self refresh per rank (pJ)
system.mem_ctrls.rank0.totalEnergy       24142964.949600                       # Total energy per rank (pJ)
system.mem_ctrls.rank0.averagePower        607.156346                       # Core power per rank (mW)
system.mem_ctrls.rank0.totalIdleTime                0                       # Total Idle time Per DRAM Rank
system.mem_ctrls.rank0.memoryStateTime::IDLE       779500                       # Time in different power states
system.mem_ctrls.rank0.memoryStateTime::REF      1750000                       # Time in different power states
system.mem_ctrls.rank0.memoryStateTime::SREF            0                       # Time in different power states
system.mem_ctrls.rank0.memoryStateTime::PRE_PDN            0                       # Time in different power states
system.mem_ctrls.rank0.memoryStateTime::ACT     37234500                       # Time in different power states
system.mem_ctrls.rank0.memoryStateTime::ACT_PDN            0                       # Time in different power states
system.cpu_clk_domain.clock                       500                       # Clock period in ticks
system.cpu.pwrStateResidencyTicks::ON        39764000                       # Cumulative time (in ticks) in various power states
system.cpu.icache.pwrStateResidencyTicks::UNDEFINED     39764000                       # Cumulative time (in ticks) in various power states
system.cpu.icache.demand_hits::.cpu.inst         4097                       # number of demand (read+write) hits
[...]
system.cpu.icache.ReadReq_accesses::total         4587                       # number of ReadReq accesses(hits+misses)
system.cpu.icache.ReadReq_miss_rate::.cpu.inst     0.106824                       # miss rate for ReadReq accesses
system.cpu.icache.ReadReq_miss_rate::total     0.106824                       # miss rate for ReadReq accesses
system.cpu.icache.ReadReq_avg_miss_latency::.cpu.inst 54972.448980                       # average ReadReq miss latency
system.cpu.icache.ReadReq_avg_miss_latency::total 54972.448980                       # average ReadReq miss latency
system.cpu.icache.ReadReq_mshr_misses::.cpu.inst          490                       # number of ReadReq MSHR misses
system.cpu.icache.ReadReq_mshr_misses::total          490                       # number of ReadReq MSHR misses
system.cpu.icache.ReadReq_mshr_miss_latency::.cpu.inst     26446500                       # number of ReadReq MSHR miss cycles
system.cpu.icache.ReadReq_mshr_miss_latency::total     26446500                       # number of ReadReq MSHR miss cycles
system.cpu.icache.ReadReq_mshr_miss_rate::.cpu.inst     0.106824                       # mshr miss rate for ReadReq accesses
system.cpu.icache.ReadReq_mshr_miss_rate::total     0.106824                       # mshr miss rate for ReadReq accesses
system.cpu.icache.ReadReq_avg_mshr_miss_latency::.cpu.inst 53972.448980                       # average ReadReq mshr miss latency
system.cpu.icache.ReadReq_avg_mshr_miss_latency::total 53972.448980                       # average ReadReq mshr miss latency
system.cpu.icache.tags.pwrStateResidencyTicks::UNDEFINED     39764000                       # Cumulative time (in ticks) in various power states
system.cpu.icache.tags.tagsinuse           203.243289                       # Cycle average of tags in use
system.cpu.icache.tags.total_refs                4587                       # Total number of references to valid blocks.
system.cpu.icache.tags.sampled_refs               490                       # Sample count of references to valid blocks.
system.cpu.icache.tags.avg_refs              9.361224                       # Average number of references to valid blocks.
system.cpu.icache.tags.warmup_cycle             77000                       # Cycle when the warmup percentage was hit.
system.cpu.icache.tags.occ_blocks::.cpu.inst   203.243289                       # Average occupied blocks per requestor
system.cpu.icache.tags.occ_percent::.cpu.inst     0.396960                       # Average percentage of cache occupancy
system.cpu.icache.tags.occ_percent::total     0.396960                       # Average percentage of cache occupancy
system.cpu.icache.tags.occ_task_id_blocks::1024          350                       # Occupied blocks per task id
system.cpu.icache.tags.age_task_id_blocks_1024::0          116                       # Occupied blocks per task id
system.cpu.icache.tags.age_task_id_blocks_1024::1          234                       # Occupied blocks per task id
system.cpu.icache.tags.occ_task_id_percent::1024     0.683594                       # Percentage of cache occupancy per task id
system.cpu.icache.tags.tag_accesses              9664                       # Number of tag accesses
system.cpu.icache.tags.data_accesses             9664                       # Number of data accesses
system.cpu.dtb.walker.pwrStateResidencyTicks::UNDEFINED     39764000                       # Cumulative time (in ticks) in various power states
system.cpu.dtb.stage2_mmu.stage2_tlb.walker.pwrStateResidencyTicks::UNDEFINED     39764000                       # Cumulative time (in ticks) in various power states
system.cpu.dcache.pwrStateResidencyTicks::UNDEFINED     39764000                       # Cumulative time (in ticks) in various power states
system.cpu.dcache.demand_hits::.cpu.data         3957                       # number of demand (read+write) hits
system.cpu.dcache.demand_hits::total             3957                       # number of demand (read+write) hits
system.cpu.dcache.overall_hits::.cpu.data         3978                       # number of overall hits
system.cpu.dcache.overall_hits::total            3978                       # number of overall hits
system.cpu.dcache.demand_misses::.cpu.data          248                       # number of demand (read+write) misses
system.cpu.dcache.demand_misses::total            248                       # number of demand (read+write) misses
system.cpu.dcache.overall_misses::.cpu.data          255                       # number of overall misses
system.cpu.dcache.overall_misses::total           255                       # number of overall misses
system.cpu.dcache.demand_miss_latency::.cpu.data     13897500                       # number of demand (read+write) miss cycles
system.cpu.dcache.demand_miss_latency::total     13897500                       # number of demand (read+write) miss cycles
system.cpu.dcache.overall_miss_latency::.cpu.data     13897500                       # number of overall miss cycles
system.cpu.dcache.overall_miss_latency::total     13897500                       # number of overall miss cycles
system.cpu.dcache.demand_accesses::.cpu.data         4205                       # number of demand (read+write) accesses
system.cpu.dcache.demand_accesses::total         4205                       # number of demand (read+write) accesses
system.cpu.dcache.overall_accesses::.cpu.data         4233                       # number of overall (read+write) accesses
system.cpu.dcache.overall_accesses::total         4233                       # number of overall (read+write) accesses
system.cpu.dcache.demand_miss_rate::.cpu.data     0.058977                       # miss rate for demand accesses
system.cpu.dcache.demand_miss_rate::total     0.058977                       # miss rate for demand accesses
system.cpu.dcache.overall_miss_rate::.cpu.data     0.060241                       # miss rate for overall accesses
system.cpu.dcache.overall_miss_rate::total     0.060241                       # miss rate for overall accesses
system.cpu.dcache.demand_avg_miss_latency::.cpu.data 56038.306452                       # average overall miss latency
system.cpu.dcache.demand_avg_miss_latency::total 56038.306452                       # average overall miss latency
system.cpu.dcache.overall_avg_miss_latency::.cpu.data        54500                       # average overall miss latency
system.cpu.dcache.overall_avg_miss_latency::total        54500                       # average overall miss latency
system.cpu.dcache.blocked_cycles::no_mshrs            0                       # number of cycles access was blocked
system.cpu.dcache.blocked_cycles::no_targets            0                       # number of cycles access was blocked
system.cpu.dcache.blocked::no_mshrs                 0                       # number of cycles access was blocked
system.cpu.dcache.blocked::no_targets               0                       # number of cycles access was blocked
system.cpu.dcache.avg_blocked_cycles::no_mshrs          nan                       # average number of cycles each access was blocked
system.cpu.dcache.avg_blocked_cycles::no_targets          nan                       # average number of cycles each access was blocked
system.cpu.dcache.demand_mshr_hits::.cpu.data           57                       # number of demand (read+write) MSHR hits
system.cpu.dcache.demand_mshr_hits::total           57                       # number of demand (read+write) MSHR hits
system.cpu.dcache.overall_mshr_hits::.cpu.data           57                       # number of overall MSHR hits
system.cpu.dcache.overall_mshr_hits::total           57                       # number of overall MSHR hits
system.cpu.dcache.demand_mshr_misses::.cpu.data          191                       # number of demand (read+write) MSHR misses
system.cpu.dcache.demand_mshr_misses::total          191                       # number of demand (read+write) MSHR misses
system.cpu.dcache.overall_mshr_misses::.cpu.data          196                       # number of overall MSHR misses
system.cpu.dcache.overall_mshr_misses::total          196                       # number of overall MSHR misses
system.cpu.dcache.demand_mshr_miss_latency::.cpu.data     10562000                       # number of demand (read+write) MSHR miss cycles
system.cpu.dcache.demand_mshr_miss_latency::total     10562000                       # number of demand (read+write) MSHR miss cycles
system.cpu.dcache.overall_mshr_miss_latency::.cpu.data     10873500                       # number of overall MSHR miss cycles
system.cpu.dcache.overall_mshr_miss_latency::total     10873500                       # number of overall MSHR miss cycles
system.cpu.dcache.demand_mshr_miss_rate::.cpu.data     0.045422                       # mshr miss rate for demand accesses
system.cpu.dcache.demand_mshr_miss_rate::total     0.045422                       # mshr miss rate for demand accesses
system.cpu.dcache.overall_mshr_miss_rate::.cpu.data     0.046303                       # mshr miss rate for overall accesses
system.cpu.dcache.overall_mshr_miss_rate::total     0.046303                       # mshr miss rate for overall accesses
system.cpu.dcache.demand_avg_mshr_miss_latency::.cpu.data 55298.429319                       # average overall mshr miss latency
system.cpu.dcache.demand_avg_mshr_miss_latency::total 55298.429319                       # average overall mshr miss latency
system.cpu.dcache.overall_avg_mshr_miss_latency::.cpu.data 55477.040816                       # average overall mshr miss latency
system.cpu.dcache.overall_avg_mshr_miss_latency::total 55477.040816                       # average overall mshr miss latency
system.cpu.dcache.replacements                      0                       # number of replacements
system.cpu.dcache.ReadReq_hits::.cpu.data         2114                       # number of ReadReq hits
system.cpu.dcache.ReadReq_hits::total            2114                       # number of ReadReq hits
system.cpu.dcache.ReadReq_misses::.cpu.data          121                       # number of ReadReq misses
system.cpu.dcache.ReadReq_misses::total           121                       # number of ReadReq misses
system.cpu.dcache.ReadReq_miss_latency::.cpu.data      6941500                       # number of ReadReq miss cycles
system.cpu.dcache.ReadReq_miss_latency::total      6941500                       # number of ReadReq miss cycles
system.cpu.dcache.ReadReq_accesses::.cpu.data         2235                       # number of ReadReq accesses(hits+misses)
system.cpu.dcache.ReadReq_accesses::total         2235                       # number of ReadReq accesses(hits+misses)
system.cpu.dcache.ReadReq_miss_rate::.cpu.data     0.054139                       # miss rate for ReadReq accesses
system.cpu.dcache.ReadReq_miss_rate::total     0.054139                       # miss rate for ReadReq accesses
system.cpu.dcache.ReadReq_avg_miss_latency::.cpu.data 57367.768595                       # average ReadReq miss latency
system.cpu.dcache.ReadReq_avg_miss_latency::total 57367.768595                       # average ReadReq miss latency
system.cpu.dcache.ReadReq_mshr_hits::.cpu.data            6                       # number of ReadReq MSHR hits
system.cpu.dcache.ReadReq_mshr_hits::total            6                       # number of ReadReq MSHR hits
system.cpu.dcache.ReadReq_mshr_misses::.cpu.data          115                       # number of ReadReq MSHR misses
system.cpu.dcache.ReadReq_mshr_misses::total          115                       # number of ReadReq MSHR misses
system.cpu.dcache.ReadReq_mshr_miss_latency::.cpu.data      6476000                       # number of ReadReq MSHR miss cycles
system.cpu.dcache.ReadReq_mshr_miss_latency::total      6476000                       # number of ReadReq MSHR miss cycles
system.cpu.dcache.ReadReq_mshr_miss_rate::.cpu.data     0.051454                       # mshr miss rate for ReadReq accesses
system.cpu.dcache.ReadReq_mshr_miss_rate::total     0.051454                       # mshr miss rate for ReadReq accesses
system.cpu.dcache.ReadReq_avg_mshr_miss_latency::.cpu.data 56313.043478                       # average ReadReq mshr miss latency
system.cpu.dcache.ReadReq_avg_mshr_miss_latency::total 56313.043478                       # average ReadReq mshr miss latency
system.cpu.dcache.WriteReq_hits::.cpu.data         1843                       # number of WriteReq hits
system.cpu.dcache.WriteReq_hits::total           1843                       # number of WriteReq hits
system.cpu.dcache.WriteReq_misses::.cpu.data          127                       # number of WriteReq misses
system.cpu.dcache.WriteReq_misses::total          127                       # number of WriteReq misses
system.cpu.dcache.WriteReq_miss_latency::.cpu.data      6956000                       # number of WriteReq miss cycles
system.cpu.dcache.WriteReq_miss_latency::total      6956000                       # number of WriteReq miss cycles
system.cpu.dcache.WriteReq_accesses::.cpu.data         1970                       # number of WriteReq accesses(hits+misses)
system.cpu.dcache.WriteReq_accesses::total         1970                       # number of WriteReq accesses(hits+misses)
system.cpu.dcache.WriteReq_miss_rate::.cpu.data     0.064467                       # miss rate for WriteReq accesses
system.cpu.dcache.WriteReq_miss_rate::total     0.064467                       # miss rate for WriteReq accesses
system.cpu.dcache.WriteReq_avg_miss_latency::.cpu.data 54771.653543                       # average WriteReq miss latency
system.cpu.dcache.WriteReq_avg_miss_latency::total 54771.653543                       # average WriteReq miss latency
system.cpu.dcache.WriteReq_mshr_hits::.cpu.data           51                       # number of WriteReq MSHR hits
system.cpu.dcache.WriteReq_mshr_hits::total           51                       # number of WriteReq MSHR hits
system.cpu.dcache.WriteReq_mshr_misses::.cpu.data           76                       # number of WriteReq MSHR misses
system.cpu.dcache.WriteReq_mshr_misses::total           76                       # number of WriteReq MSHR misses
system.cpu.dcache.WriteReq_mshr_miss_latency::.cpu.data      4086000                       # number of WriteReq MSHR miss cycles
system.cpu.dcache.WriteReq_mshr_miss_latency::total      4086000                       # number of WriteReq MSHR miss cycles
system.cpu.dcache.WriteReq_mshr_miss_rate::.cpu.data     0.038579                       # mshr miss rate for WriteReq accesses
system.cpu.dcache.WriteReq_mshr_miss_rate::total     0.038579                       # mshr miss rate for WriteReq accesses
system.cpu.dcache.WriteReq_avg_mshr_miss_latency::.cpu.data 53763.157895                       # average WriteReq mshr miss latency
system.cpu.dcache.WriteReq_avg_mshr_miss_latency::total 53763.157895                       # average WriteReq mshr miss latency
system.cpu.dcache.SoftPFReq_hits::.cpu.data           21                       # number of SoftPFReq hits
system.cpu.dcache.SoftPFReq_hits::total            21                       # number of SoftPFReq hits
system.cpu.dcache.SoftPFReq_misses::.cpu.data            7                       # number of SoftPFReq misses
system.cpu.dcache.SoftPFReq_misses::total            7                       # number of SoftPFReq misses
system.cpu.dcache.SoftPFReq_accesses::.cpu.data           28                       # number of SoftPFReq accesses(hits+misses)
system.cpu.dcache.SoftPFReq_accesses::total           28                       # number of SoftPFReq accesses(hits+misses)
system.cpu.dcache.SoftPFReq_miss_rate::.cpu.data     0.250000                       # miss rate for SoftPFReq accesses
system.cpu.dcache.SoftPFReq_miss_rate::total     0.250000                       # miss rate for SoftPFReq accesses
system.cpu.dcache.SoftPFReq_mshr_misses::.cpu.data            5                       # number of SoftPFReq MSHR misses
system.cpu.dcache.SoftPFReq_mshr_misses::total            5                       # number of SoftPFReq MSHR misses
system.cpu.dcache.SoftPFReq_mshr_miss_latency::.cpu.data       311500                       # number of SoftPFReq MSHR miss cycles
system.cpu.dcache.SoftPFReq_mshr_miss_latency::total       311500                       # number of SoftPFReq MSHR miss cycles
system.cpu.dcache.SoftPFReq_mshr_miss_rate::.cpu.data     0.178571                       # mshr miss rate for SoftPFReq accesses
system.cpu.dcache.SoftPFReq_mshr_miss_rate::total     0.178571                       # mshr miss rate for SoftPFReq accesses
system.cpu.dcache.SoftPFReq_avg_mshr_miss_latency::.cpu.data        62300                       # average SoftPFReq mshr miss latency
system.cpu.dcache.SoftPFReq_avg_mshr_miss_latency::total        62300                       # average SoftPFReq mshr miss latency
system.cpu.dcache.LoadLockedReq_hits::.cpu.data           26                       # number of LoadLockedReq hits
system.cpu.dcache.LoadLockedReq_hits::total           26                       # number of LoadLockedReq hits
system.cpu.dcache.LoadLockedReq_accesses::.cpu.data           26                       # number of LoadLockedReq accesses(hits+misses)
system.cpu.dcache.LoadLockedReq_accesses::total           26                       # number of LoadLockedReq accesses(hits+misses)
system.cpu.dcache.StoreCondReq_hits::.cpu.data           26                       # number of StoreCondReq hits
system.cpu.dcache.StoreCondReq_hits::total           26                       # number of StoreCondReq hits
system.cpu.dcache.StoreCondReq_accesses::.cpu.data           26                       # number of StoreCondReq accesses(hits+misses)
system.cpu.dcache.StoreCondReq_accesses::total           26                       # number of StoreCondReq accesses(hits+misses)
system.cpu.dcache.tags.pwrStateResidencyTicks::UNDEFINED     39764000                       # Cumulative time (in ticks) in various power states
system.cpu.dcache.tags.tagsinuse           117.365710                       # Cycle average of tags in use
system.cpu.dcache.tags.total_refs                4226                       # Total number of references to valid blocks.
system.cpu.dcache.tags.sampled_refs               196                       # Sample count of references to valid blocks.
system.cpu.dcache.tags.avg_refs             21.561224                       # Average number of references to valid blocks.
system.cpu.dcache.tags.warmup_cycle            144000                       # Cycle when the warmup percentage was hit.
system.cpu.dcache.tags.occ_blocks::.cpu.data   117.365710                       # Average occupied blocks per requestor
system.cpu.dcache.tags.occ_percent::.cpu.data     0.114615                       # Average percentage of cache occupancy
system.cpu.dcache.tags.occ_percent::total     0.114615                       # Average percentage of cache occupancy
system.cpu.dcache.tags.occ_task_id_blocks::1024          196                       # Occupied blocks per task id
system.cpu.dcache.tags.age_task_id_blocks_1024::0           23                       # Occupied blocks per task id
system.cpu.dcache.tags.age_task_id_blocks_1024::1          173                       # Occupied blocks per task id
system.cpu.dcache.tags.occ_task_id_percent::1024     0.191406                       # Percentage of cache occupancy per task id
system.cpu.dcache.tags.tag_accesses              8766                       # Number of tag accesses
system.cpu.dcache.tags.data_accesses             8766                       # Number of data accesses
system.cpu.itb.walker.pwrStateResidencyTicks::UNDEFINED     39764000                       # Cumulative time (in ticks) in various power states
system.cpu.itb.stage2_mmu.stage2_tlb.walker.pwrStateResidencyTicks::UNDEFINED     39764000                       # Cumulative time (in ticks) in various power states

---------- End Simulation Statistics   ----------

